%nproc=1
%NoSave
%Mem=1900MB
#P OB98/GEN NMR

erre ene a

0 1
  C     -102.278      10.555     226.370
  O     -102.659      10.844     225.036
  P     -102.585       9.701     223.921
  C     -100.169      10.349     223.312
  O     -101.040       9.303     223.735
  C      -98.723       9.859     223.282
  O      -98.353       9.313     224.566
  C      -98.468       8.745     222.273
  O      -98.391       9.260     220.959
  C      -97.161       8.158     222.805
  O      -96.037       8.944     222.364
  C      -97.352       8.290     224.326
  N      -95.810       4.489     227.363
  C      -95.138       5.511     226.782
  N      -95.615       6.467     225.950
  C      -96.926       6.274     225.718
  C      -97.739       5.261     226.210
  C      -97.133       4.342     227.094
  N      -97.822       3.338     227.743
  N      -99.024       5.385     225.721
  C      -98.981       6.451     224.936
  N      -97.757       7.051     224.955
  O     -103.318       9.997     222.652
  O     -103.203       8.415     224.645
  H      -95.293       8.747     222.964
  H     -103.994       8.115     224.159
  H      -94.081       5.571     227.022
  H      -99.816       6.827     224.354
  H      -96.432       8.631     224.821
  H      -96.995       7.129     222.467
  H      -99.256       7.984     222.347
  H      -98.073      10.720     223.080
  H     -100.261      11.188     224.012
  H      -97.324       2.840     228.458
  H      -98.833       3.409     227.790
  H     -100.469      10.694     222.312
  P      -98.879       8.364     219.719
  C      -96.492       7.729     219.020
  O      -97.747       7.254     219.474
  O      -99.306       9.117     218.499
  O     -100.089       7.504     220.331
  H     -100.747       7.329     219.631
  H      -96.550       7.950     217.949
  H      -95.739       6.949     219.183
  H      -96.189       8.629     219.566
  H     -102.392      11.433     226.972
  H     -101.256      10.240     226.389
  H     -102.899       9.774     226.757

 3  4  5  6  7  8  9  10  11  12  22  25  29  30  31  32 0
 6-311+G(2d,p)
 ****
 33  36  37 0
 6-311+G(2d,p)
 ****
 1  2  13  14  15  16  17  18  19  20  21  23  24  26 0
 3-21G
 ****
 27  28  34  35  38  39  40  41  42  43  44  45  46  47  48 0
 3-21G
 ****


