%nproc=1
%NoSave
%Mem=1900MB
#P OB98/GEN NMR

erre ene a

0 1
  C       52.301     141.791    -247.610
  O       52.413     140.371    -247.495
  P       51.647     139.612    -246.313
  C       53.764     139.484    -244.833
  O       52.403     139.889    -244.927
  C       54.522     140.412    -243.880
  O       53.827     140.563    -242.620
  C       55.897     139.879    -243.500
  O       56.877     139.862    -244.516
  C       56.214     140.667    -242.241
  O       56.744     141.956    -242.548
  C       54.815     140.794    -241.593
  N       54.632     139.883    -240.463
  C       55.305     140.218    -239.292
  O       56.051     141.189    -239.197
  N       55.119     139.370    -238.235
  C       54.371     138.228    -238.244
  O       54.258     137.491    -237.273
  C       53.703     137.914    -239.517
  C       53.860     138.741    -240.551
  O       51.301     138.186    -246.575
  O       50.306     140.486    -246.148
  H       57.489     141.827    -243.163
  H       49.564     139.866    -246.004
  H       55.592     139.600    -237.375
  H       53.106     137.013    -239.563
  H       53.377     138.528    -241.498
  H       54.654     141.816    -241.227
  H       56.957     140.156    -241.621
  H       55.777     138.829    -243.192
  H       54.589     141.402    -244.337
  H       54.225     139.499    -245.822
  H       53.802     138.446    -244.489
  P       56.910     138.770    -245.689
  C       59.190     137.809    -244.916
  O       57.837     137.550    -245.219
  O       57.090     139.268    -247.085
  O       55.441     138.128    -245.565
  H       55.141     137.867    -246.454
  H       59.669     136.869    -244.633
  H       59.267     138.508    -244.079
  H       59.705     138.215    -245.790
  H       52.873     142.127    -248.449
  H       52.672     142.251    -246.718
  H       51.274     142.058    -247.748

 3  4  5  6  7  8  9  10  11  12  13  23  28  29  30  31  32 0
 6-311+G(2d,p)
 ****
 33  34 0
 6-311+G(2d,p)
 ****
 1  2  14  15  16  17  18  19  20  21  22  24  25  26  27 0
 3-21G
 ****
 35  36  37  38  39  40  41  42  43  44  45 0
 3-21G
 ****


