%nproc=1
%NoSave
%Mem=1900MB
#P OB98/GEN NMR

erre ene a

0 1
  C      153.443     -21.338    -172.561
  O      154.430     -20.729    -171.755
  P      155.039     -21.414    -170.447
  C      152.925     -20.881    -169.034
  O      154.336     -20.753    -169.160
  C      152.401     -20.413    -167.667
  O      152.908     -21.283    -166.636
  C      152.932     -19.011    -167.352
  O      152.278     -17.870    -167.868
  C      153.148     -19.001    -165.844
  O      152.066     -18.390    -165.140
  C      153.247     -20.486    -165.490
  N      155.876     -22.529    -161.668
  C      154.514     -22.552    -161.897
  N      153.753     -23.013    -160.881
  N      153.960     -22.138    -163.006
  C      154.844     -21.616    -163.889
  C      156.213     -21.552    -163.780
  C      156.816     -22.051    -162.567
  O      158.011     -21.972    -162.291
  N      156.778     -20.891    -164.839
  C      155.750     -20.516    -165.571
  N      154.552     -20.899    -165.014
  O      156.518     -21.627    -170.425
  O      154.344     -22.871    -170.499
  H      152.127     -17.427    -165.275
  H      154.985     -23.513    -170.139
  H      156.241     -22.789    -160.760
  H      155.815     -19.941    -166.487
  H      152.527     -20.745    -164.705
  H      154.046     -18.428    -165.586
  H      154.132     -23.202    -159.963
  H      153.941     -18.953    -167.780
  H      152.749     -22.885    -160.946
  H      151.312     -20.493    -167.616
  H      152.675     -21.932    -169.203
  H      152.434     -20.303    -169.822
  P      152.844     -16.874    -168.985
  C      154.046     -15.277    -167.389
  O      153.000     -15.420    -168.333
  O      151.620     -16.679    -169.999
  O      154.050     -17.368    -169.715
  H      151.955     -16.392    -170.868
  H      153.873     -14.373    -166.801
  H      155.002     -15.183    -167.913
  H      154.086     -16.138    -166.716
  H      153.197     -20.689    -173.375
  H      152.567     -21.523    -171.974
  H      153.817     -22.264    -172.944

 3  4  5  6  7  8  9  10  11  12  23  26  30  31 0
 6-311+G(2d,p)
 ****
 33  35  36  37  38 0
 6-311+G(2d,p)
 ****
 1  2  13  14  15  16  17  18  19  20  21  22  24  25 0
 3-21G
 ****
 27  28  29  32  34  39  40  41  42  43  44  45  46  47  48  49 0
 3-21G
 ****


