%nproc=1
%NoSave
%Mem=1900MB
#P OB98/GEN NMR

erre ene a

0 1
  C     -133.332       0.082    -414.554
  O     -134.093      -0.552    -415.576
  P     -133.919      -0.090    -417.114
  C     -136.135       0.790    -418.091
  O     -134.935       1.127    -417.381
  C     -137.196       0.285    -417.111
  O     -137.474       1.265    -416.084
  C     -138.555       0.016    -417.759
  O     -138.530      -1.168    -418.560
  C     -139.463      -0.057    -416.545
  O     -139.379      -1.344    -415.904
  C     -138.822       1.033    -415.626
  N     -139.598       2.272    -415.623
  C     -140.921       2.162    -415.155
  O     -141.391       1.055    -414.863
  N     -141.673       3.308    -415.056
  C     -141.205       4.438    -415.480
  N     -141.963       5.538    -415.300
  C     -139.865       4.549    -416.135
  C     -139.120       3.453    -416.143
  O     -133.980      -1.199    -418.116
  O     -132.486       0.625    -417.142
  H     -131.958       0.250    -417.873
  H     -139.671      -2.001    -416.566
  H     -139.538       5.502    -416.534
  H     -138.130       3.448    -416.574
  H     -138.743       0.658    -414.596
  H     -140.510       0.120    -416.790
  H     -138.836       0.877    -418.382
  H     -136.811      -0.638    -416.637
  H     -142.849       5.436    -414.836
  H     -135.897       0.019    -418.828
  H     -141.568       6.490    -415.288
  H     -136.489       1.682    -418.621
  P     -139.586      -1.220    -419.776
  C     -141.703      -2.744    -419.692
  O     -141.003      -1.636    -419.135
  O     -139.149      -2.546    -420.583
  O     -139.607      -0.038    -420.664
  H     -139.269      -2.410    -421.554
  H     -142.442      -3.105    -418.960
  H     -141.024      -3.549    -419.916
  H     -142.226      -2.424    -420.585
  H     -133.577      -0.351    -413.607
  H     -133.558       1.128    -414.538
  H     -132.289      -0.055    -414.749

 3  4  5  6  7  8  9  10  11  12  13  24  27  28  29  30  32 0
 6-311+G(2d,p)
 ****
 34  35 0
 6-311+G(2d,p)
 ****
 1  2  14  15  16  17  18  19  20  21  22  23  25  26 0
 3-21G
 ****
 31  33  36  37  38  39  40  41  42  43  44  45  46 0
 3-21G
 ****


