%nproc=1
%NoSave
%Mem=1900MB
#P OB98/GEN NMR

erre ene a

0 1
  C     -216.477     311.525      18.624
  O     -215.900     312.346      19.626
  P     -214.733     311.788      20.568
  C     -215.918     312.082      22.836
  O     -214.887     312.548      21.978
  C     -216.345     313.178      23.817
  O     -215.295     313.352      24.802
  C     -216.584     314.526      23.154
  O     -217.669     315.184      23.815
  C     -215.313     315.308      23.432
  O     -215.561     316.729      23.421
  C     -214.893     314.738      24.789
  N     -210.935     317.745      26.065
  C     -212.256     317.994      25.978
  N     -213.248     317.157      25.609
  C     -212.763     315.922      25.360
  C     -211.439     315.521      25.414
  C     -210.491     316.497      25.781
  N     -209.143     316.237      25.884
  N     -211.317     314.185      25.066
  C     -212.550     313.791      24.831
  N     -213.465     314.805      25.007
  O     -213.365     311.836      19.984
  O     -215.179     310.288      20.919
  H     -216.162     316.927      24.169
  H     -214.403     309.699      20.943
  H     -212.562     319.007      26.234
  H     -212.838     312.796      24.526
  H     -215.398     315.245      25.619
  H     -214.570     315.096      22.657
  H     -216.793     314.446      22.081
  H     -217.243     312.835      24.349
  H     -215.541     311.217      23.397
  H     -208.559     316.963      26.272
  H     -208.838     315.271      25.846
  H     -216.772     311.750      22.231
  P     -219.145     314.797      23.289
  C     -220.143     317.198      23.535
  O     -220.119     315.868      23.999
  O     -219.460     313.352      23.499
  O     -219.065     315.257      21.757
  H     -218.391     315.952      21.627
  H     -220.834     317.773      24.160
  H     -220.510     317.229      22.500
  H     -219.147     317.646      23.588
  H     -217.234     312.075      18.105
  H     -216.913     310.660      19.079
  H     -215.719     311.221      17.932

 3  4  5  6  7  8  9  10  11  12  22  25  29  30  31  32 0
 6-311+G(2d,p)
 ****
 33  36  37 0
 6-311+G(2d,p)
 ****
 1  2  13  14  15  16  17  18  19  20  21  23  24  26 0
 3-21G
 ****
 27  28  34  35  38  39  40  41  42  43  44  45  46  47  48 0
 3-21G
 ****


