%nproc=1
%NoSave
%Mem=1900MB
#P OB98/GEN NMR

erre ene a

0 1
  C      223.658    -147.532     737.350
  O      224.961    -147.919     736.965
  H      223.735    -146.786     738.146
  H      223.112    -148.398     737.731
  H      223.113    -147.090     736.510
  P      225.152    -148.778     735.626
  C      225.423    -146.658     734.177
  O      224.664    -147.842     734.413
  C      225.500    -146.357     732.671
  O      224.142    -146.155     732.168
  C      226.308    -145.092     732.331
  O      226.902    -145.304     731.042
  C      225.222    -144.040     732.243
  O      225.668    -142.891     731.563
  C      224.100    -144.842     731.568
  N      222.796    -144.206     731.727
  C      222.587    -143.034     731.013
  O      223.452    -142.501     730.314
  N      221.361    -142.441     731.170
  C      220.366    -142.876     731.997
  O      219.299    -142.286     732.128
  C      220.655    -144.100     732.761
  C      221.836    -144.710     732.587
  O      224.548    -150.145     735.639
  O      226.738    -148.830     735.410
  H      224.937    -142.246     731.459
  H      226.987    -149.654     734.960
  H      221.193    -141.591     730.654
  H      219.895    -144.472     733.428
  H      222.080    -145.612     733.130
  H      224.301    -144.948     730.495
  H      224.910    -143.721     733.246
  H      227.074    -144.862     733.075
  H      225.898    -147.236     732.157
  H      226.429    -146.816     734.569
  H      224.956    -145.818     734.703
  P      228.427    -144.887     730.725
  C      229.330    -147.305     730.633
  O      229.398    -146.039     731.292
  O      228.789    -143.506     731.163
  O      228.559    -145.038     729.133
  H      229.246    -144.418     728.804
  H      230.015    -147.985     731.095
  H      229.588    -147.184     729.601
  H      228.336    -147.694     730.709

 6  7  8  9  10  11  12  13  14  15  16  26  31  32  33  34  35 0
 6-311+G(2d,p)
 ****
 36  37 0
 6-311+G(2d,p)
 ****
 1  2  3  4  5  17  18  19  20  21  22  23  24  25 0
 3-21G
 ****
 27  28  29  30  38  39  40  41  42  43  44  45 0
 3-21G
 ****


