%nproc=1
%NoSave
%Mem=1900MB
#P OB98/GEN NMR

erre ene a

0 1
  C      294.132     -43.190     129.035
  O      293.945     -44.573     129.285
  P      292.960     -45.426     128.356
  C      294.319     -47.507     129.018
  O      293.017     -46.950     128.851
  C      294.223     -48.896     129.646
  O      293.892     -48.792     131.047
  C      293.146     -49.780     129.035
  O      293.562     -50.293     127.783
  C      292.964     -50.827     130.128
  O      293.984     -51.837     130.032
  C      293.162     -49.989     131.404
  N      289.454     -51.632     134.498
  C      290.495     -52.273     133.923
  N      291.420     -51.769     133.073
  C      291.171     -50.474     132.821
  C      290.130     -49.699     133.304
  C      289.250     -50.327     134.205
  N      288.222     -49.669     134.850
  N      290.197     -48.420     132.789
  C      291.254     -48.428     131.998
  N      291.910     -49.628     132.038
  O      293.138     -45.230     126.885
  O      291.500     -44.952     128.815
  H      293.982     -52.330     130.872
  H      291.034     -44.553     128.056
  H      290.605     -53.320     134.182
  H      291.592     -47.593     131.399
  H      293.764     -50.519     132.148
  H      291.994     -51.333     130.074
  H      292.210     -49.211     128.927
  H      295.209     -49.374     129.565
  H      294.894     -46.842     129.671
  H      287.748     -50.174     135.581
  H      288.245     -48.652     134.878
  H      294.818     -47.563     128.043
  P      292.821     -51.564     127.156
  C      291.921     -50.715     124.903
  O      292.947     -51.440     125.562
  O      291.437     -51.823     127.666
  O      293.798     -52.784     127.495
  H      293.272     -53.595     127.630
  H      291.032     -51.345     124.812
  H      292.270     -50.445     123.904
  H      291.672     -49.804     125.453
  H      294.819     -42.788     129.750
  H      293.194     -42.683     129.117
  H      294.525     -43.056     128.049

 3  4  5  6  7  8  9  10  11  12  22  25  29  30  31  32 0
 6-311+G(2d,p)
 ****
 33  36  37 0
 6-311+G(2d,p)
 ****
 1  2  13  14  15  16  17  18  19  20  21  23  24  26 0
 3-21G
 ****
 27  28  34  35  38  39  40  41  42  43  44  45  46  47  48 0
 3-21G
 ****


