%nproc=1
%NoSave
%Mem=1900MB
#P OB98/GEN NMR

erre ene a

0 1
  C      136.910    -111.746      20.854
  O      137.756    -110.613      20.820
  H      136.492    -111.904      19.856
  H      136.089    -111.587      21.558
  H      137.481    -112.633      21.144
  P      138.387    -110.154      22.226
  C      136.210    -108.778      22.659
  O      137.097    -109.791      23.114
  C      135.291    -108.349      23.797
  O      134.547    -109.479      24.304
  C      136.023    -107.770      25.004
  O      136.426    -106.424      24.813
  C      134.941    -107.892      26.062
  O      133.958    -106.857      25.870
  C      134.356    -109.285      25.731
  N      134.986    -110.369      26.488
  C      134.879    -110.308      27.882
  O      134.287    -109.374      28.425
  N      135.475    -111.293      28.636
  C      136.112    -112.258      28.051
  N      136.695    -113.198      28.847
  C      136.236    -112.371      26.585
  C      135.658    -111.404      25.875
  O      139.007    -108.712      21.907
  O      139.342    -111.109      22.860
  H      133.249    -107.018      26.519
  H      139.313    -108.287      22.744
  H      136.788    -113.190      26.144
  H      135.710    -111.419      24.792
  H      133.275    -109.309      25.921
  H      135.324    -107.789      27.081
  H      136.874    -108.395      25.299
  H      134.562    -107.632      23.393
  H      136.647    -113.061      29.847
  H      135.621    -109.181      21.828
  H      137.357    -113.877      28.492
  H      136.780    -107.911      22.305
  P      137.719    -105.912      25.616
  C      136.101    -105.023      27.443
  O      137.286    -105.752      27.154
  O      137.876    -104.399      25.121
  O      138.964    -106.712      25.384
  H      138.817    -104.160      25.005
  H      135.944    -105.002      28.501
  H      135.267    -105.496      26.968
  H      136.200    -104.022      27.077

 6  7  8  9  10  11  12  13  14  15  16  26  30  31  32  33  35 0
 6-311+G(2d,p)
 ****
 37  38 0
 6-311+G(2d,p)
 ****
 1  2  3  4  5  17  18  19  20  21  22  23  24  25 0
 3-21G
 ****
 27  28  29  34  36  39  40  41  42  43  44  45  46 0
 3-21G
 ****


