%nproc=1
%NoSave
%Mem=1900MB
#P OB98/GEN NMR

erre ene a

0 1
  C       77.422    -325.624      41.874
  O       76.349    -324.741      41.616
  H       78.259    -325.053      42.280
  H       77.741    -326.102      40.946
  H       77.126    -326.385      42.605
  P       74.936    -325.391      41.238
  C       74.133    -326.169      43.588
  O       74.656    -326.543      42.322
  C       72.637    -325.878      43.472
  O       71.953    -327.104      43.077
  C       71.992    -325.392      44.778
  O       70.983    -324.425      44.455
  C       71.324    -326.645      45.318
  O       70.255    -326.385      46.216
  C       70.881    -327.315      44.018
  N       70.606    -328.742      44.187
  C       69.445    -329.095      44.870
  O       68.599    -328.300      45.264
  N       69.281    -330.437      45.098
  C       70.144    -331.430      44.740
  O       69.951    -332.614      44.994
  C       71.358    -330.991      44.027
  C       71.533    -329.692      43.793
  O       75.258    -326.206      39.901
  O       73.810    -324.425      41.062
  H       75.128    -325.644      39.117
  H       69.711    -325.672      45.825
  H       68.447    -330.707      45.589
  H       72.071    -331.753      43.740
  H       72.423    -329.335      43.292
  H       69.992    -326.816      43.616
  H       72.062    -327.259      45.843
  H       72.702    -324.959      45.497
  H       72.480    -325.151      42.665
  H       74.645    -325.266      43.935
  H       74.313    -326.977      44.305
  P       70.796    -323.188      45.457
  C       72.909    -321.913      44.579
  O       72.263    -322.569      45.656
  O       70.495    -323.951      46.832
  O       69.739    -322.234      45.017
  H       70.988    -324.781      46.919
  H       73.871    -321.569      44.897
  H       72.318    -321.079      44.263
  H       73.026    -322.596      43.764

 6  7  8  9  10  11  12  13  14  15  16  27  31  32  33  34  35 0
 6-311+G(2d,p)
 ****
 36  37 0
 6-311+G(2d,p)
 ****
 1  2  3  4  5  17  18  19  20  21  22  23  24  25 0
 3-21G
 ****
 26  28  29  30  38  39  40  41  42  43  44  45 0
 3-21G
 ****


