%nproc=1
%NoSave
%Mem=1900MB
#P OB98/GEN NMR

erre ene a

0 1
  C      496.112    -472.565    -511.869
  O      495.263    -471.505    -511.443
  P      493.877    -471.243    -512.213
  C      492.706    -470.904    -509.931
  O      492.655    -471.521    -511.221
  C      491.457    -470.055    -509.709
  O      491.375    -468.974    -510.671
  C      490.151    -470.821    -509.895
  O      489.856    -471.802    -508.897
  C      489.143    -469.723    -510.103
  O      488.697    -469.167    -508.861
  C      489.979    -468.682    -510.889
  N      489.660    -468.669    -512.323
  C      489.324    -467.433    -512.862
  O      489.244    -466.400    -512.195
  N      489.035    -467.425    -514.194
  C      489.020    -468.525    -515.026
  O      488.734    -468.452    -516.219
  C      489.356    -469.802    -514.398
  C      489.659    -469.826    -513.098
  O      493.767    -471.880    -513.557
  O      493.855    -469.644    -512.352
  H      489.469    -468.810    -508.397
  H      493.520    -469.429    -513.250
  H      488.799    -466.539    -514.617
  H      489.357    -470.682    -515.019
  H      489.910    -470.751    -512.615
  H      489.793    -467.670    -510.501
  H      488.252    -470.084    -510.626
  H      490.231    -471.380    -510.839
  H      491.518    -469.594    -508.712
  H      493.608    -470.295    -509.850
  H      492.790    -471.699    -509.173
  P      490.479    -473.292    -508.926
  C      492.494    -472.293    -507.622
  O      492.053    -473.170    -508.630
  O      490.055    -474.197    -510.021
  O      489.929    -473.875    -507.523
  H      489.783    -474.834    -507.647
  H      493.592    -472.325    -507.564
  H      492.090    -472.578    -506.654
  H      492.198    -471.268    -507.871
  H      496.984    -472.594    -511.250
  H      496.402    -472.403    -512.886
  H      495.588    -473.495    -511.792

 3  4  5  6  7  8  9  10  11  12  13  23  28  29  30  31  32 0
 6-311+G(2d,p)
 ****
 33  34 0
 6-311+G(2d,p)
 ****
 1  2  14  15  16  17  18  19  20  21  22  24  25  26  27 0
 3-21G
 ****
 35  36  37  38  39  40  41  42  43  44  45 0
 3-21G
 ****


