%nproc=1
%NoSave
%Mem=1900MB
#P OB98/GEN NMR

erre ene a

0 1
  C       -0.694    -169.265    -258.285
  O       -0.920    -168.101    -257.511
  H       -0.637    -168.978    -259.339
  H       -1.516    -169.973    -258.162
  H        0.250    -169.737    -257.997
  P       -1.048    -168.258    -255.923
  C        0.278    -166.070    -255.576
  O       -0.929    -166.777    -255.321
  C        0.116    -164.603    -255.193
  O       -0.473    -163.861    -256.281
  C       -0.786    -164.375    -253.979
  O       -0.066    -164.595    -252.779
  C       -1.168    -162.912    -254.191
  O       -0.069    -162.068    -253.802
  C       -1.367    -162.861    -255.716
  N       -6.008    -160.961    -256.480
  C       -4.882    -160.366    -255.948
  N       -5.023    -159.091    -255.518
  N       -3.726    -160.967    -255.827
  C       -3.755    -162.257    -256.233
  C       -4.807    -162.966    -256.758
  C       -6.067    -162.271    -256.940
  O       -7.084    -162.756    -257.420
  N       -4.475    -164.277    -256.993
  C       -3.205    -164.351    -256.642
  N       -2.723    -163.154    -256.157
  O       -0.124    -169.248    -255.277
  O       -2.587    -168.630    -255.693
  H        0.164    -162.323    -252.889
  H       -2.718    -169.598    -255.671
  H       -6.872    -160.447    -256.527
  H       -2.589    -165.238    -256.719
  H       -1.086    -161.894    -256.140
  H       -2.033    -162.608    -253.609
  H       -5.934    -158.689    -255.328
  H       -1.705    -164.980    -254.035
  H       -4.223    -158.652    -255.084
  H        1.119    -164.182    -255.023
  H        0.495    -166.163    -256.644
  H        1.102    -166.507    -255.011
  P       -0.795    -165.176    -251.469
  C        1.378    -165.182    -250.066
  O        0.074    -164.630    -250.240
  O       -1.011    -166.655    -251.477
  O       -2.141    -164.324    -251.351
  H       -2.905    -164.716    -251.848
  H        1.845    -164.732    -249.215
  H        1.966    -164.990    -250.939
  H        1.301    -166.238    -249.914

 6  7  8  9  10  11  12  13  14  15  26  29  33  34 0
 6-311+G(2d,p)
 ****
 36  38  39  40  41 0
 6-311+G(2d,p)
 ****
 1  2  3  4  5  16  17  18  19  20  21  22  23  24  25 0
 3-21G
 ****
 27  28  30  31  32  35  37  42  43  44  45  46  47 0
 3-21G
 ****
 48  49 0
 3-21G
 ****


