%nproc=1
%NoSave
%Mem=1900MB
#P OB98/GEN NMR

erre ene a

0 1
  C      120.566     345.965    -387.884
  O      119.328     346.580    -387.501
  P      118.164     345.682    -386.870
  C      116.294     344.076    -387.660
  O      117.379     344.920    -388.038
  C      115.131     344.255    -388.638
  O      114.585     345.602    -388.594
  C      115.541     344.042    -390.091
  O      115.883     342.728    -390.487
  C      114.411     344.724    -390.844
  O      113.287     343.863    -390.999
  C      114.069     345.906    -389.907
  N      114.586     347.186    -390.391
  C      113.898     347.758    -391.459
  O      112.940     347.221    -392.005
  N      114.379     348.968    -391.899
  C      115.475     349.619    -391.406
  O      115.871     350.691    -391.857
  C      116.181     348.951    -390.302
  C      115.711     347.790    -389.847
  O      117.297     346.369    -385.860
  O      118.985     344.483    -386.169
  H      112.727     344.235    -391.701
  H      118.563     344.301    -385.306
  H      113.885     349.403    -392.664
  H      117.052     349.438    -389.893
  H      116.205     347.277    -389.026
  H      112.983     346.006    -389.801
  H      114.715     345.026    -391.852
  H      116.447     344.650    -390.269
  H      114.325     343.565    -388.352
  H      115.973     344.328    -386.643
  H      116.641     343.038    -387.629
  P      117.393     342.259    -390.737
  C      119.124     342.379    -392.674
  O      117.828     342.712    -392.215
  O      117.759     340.872    -390.316
  O      118.216     343.296    -389.823
  H      119.006     342.847    -389.484
  H      119.248     342.779    -393.685
  H      119.248     341.290    -392.703
  H      119.886     342.826    -392.022
  H      121.224     346.708    -388.284
  H      120.378     345.218    -388.626
  H      121.019     345.511    -387.027

 3  4  5  6  7  8  9  10  11  12  13  23  28  29  30  31  32 0
 6-311+G(2d,p)
 ****
 33  34 0
 6-311+G(2d,p)
 ****
 1  2  14  15  16  17  18  19  20  21  22  24  25  26  27 0
 3-21G
 ****
 35  36  37  38  39  40  41  42  43  44  45 0
 3-21G
 ****


