%nproc=1
%NoSave
%Mem=1900MB
#P OB98/GEN NMR

erre ene a

0 1
  C      256.186      54.578     201.606
  O      257.262      55.163     202.303
  P      258.671      54.453     202.516
  C      259.295      54.719     199.991
  O      259.158      53.853     201.111
  C      260.360      54.193     199.017
  O      261.624      54.104     199.720
  C      260.022      52.777     198.523
  O      260.270      52.570     197.139
  C      260.771      51.888     199.506
  O      260.997      50.571     199.024
  C      262.020      52.719     199.788
  N      266.103      50.926     202.218
  C      265.954      51.234     200.881
  N      266.958      50.843     200.067
  N      264.900      51.833     200.392
  C      263.932      52.060     201.308
  C      263.967      51.801     202.659
  C      265.150      51.169     203.192
  O      265.279      50.776     204.351
  N      262.777      52.102     203.267
  C      262.006      52.511     202.279
  N      262.653      52.470     201.065
  O      258.815      53.598     203.732
  O      259.652      55.724     202.695
  H      261.557      50.111     199.676
  H      260.350      55.461     203.327
  H      266.908      50.390     202.523
  H      260.972      52.815     202.379
  H      262.790      52.553     199.031
  H      260.152      51.794     200.404
  H      267.709      50.252     200.391
  H      258.949      52.583     198.618
  H      266.763      50.830     199.069
  H      260.481      54.907     198.195
  H      259.599      55.692     200.390
  H      258.337      54.848     199.485
  P      259.506      51.613     196.116
  C      258.611      53.149     194.268
  O      258.304      52.433     195.449
  O      258.743      50.550     197.035
  O      260.391      50.909     195.140
  H      258.787      49.667     196.620
  H      257.810      53.867     194.075
  H      258.675      52.455     193.426
  H      259.556      53.689     194.375
  H      255.355      55.252     201.602
  H      255.902      53.666     202.088
  H      256.483      54.372     200.599

 3  4  5  6  7  8  9  10  11  12  23  26  30  31 0
 6-311+G(2d,p)
 ****
 33  35  36  37  38 0
 6-311+G(2d,p)
 ****
 1  2  13  14  15  16  17  18  19  20  21  22  24  25 0
 3-21G
 ****
 27  28  29  32  34  39  40  41  42  43  44  45  46  47  48  49 0
 3-21G
 ****


