%nproc=1
%NoSave
%Mem=1900MB
#P OB98/GEN NMR

erre ene a

0 1
  C     -522.588     904.736     241.716
  O     -523.256     904.860     240.444
  P     -524.849     904.955     240.336
  C     -525.061     902.675     239.195
  O     -525.371     903.448     240.355
  C     -526.292     901.838     238.777
  O     -526.521     900.823     239.784
  C     -527.602     902.607     238.667
  O     -527.819     903.240     237.407
  C     -528.600     901.459     238.808
  O     -528.730     900.760     237.577
  C     -527.955     900.585     239.867
  N     -529.969     898.451     244.076
  C     -529.518     897.925     242.904
  N     -529.054     898.555     241.808
  C     -528.927     899.880     242.061
  C     -529.316     900.575     243.182
  C     -529.825     899.790     244.262
  N     -530.260     900.330     245.451
  N     -529.092     901.917     243.044
  C     -528.558     902.042     241.847
  N     -528.422     900.820     241.222
  O     -525.335     905.810     239.210
  O     -525.295     905.512     241.777
  H     -527.948     900.199     237.457
  H     -526.226     905.869     241.721
  H     -529.633     896.826     242.812
  H     -528.256     902.984     241.396
  H     -528.101     899.493     239.677
  H     -529.605     901.799     239.074
  H     -527.734     903.286     239.508
  H     -526.046     901.333     237.841
  H     -524.251     901.975     239.463
  H     -530.507     899.682     246.183
  H     -530.012     901.304     245.651
  H     -524.738     903.308     238.374
  P     -528.007     904.855     237.451
  C     -530.589     904.682     237.269
  O     -529.494     905.095     238.024
  O     -527.677     905.517     236.165
  O     -527.042     905.292     238.662
  H     -527.357     905.019     239.536
  H     -531.514     904.784     237.909
  H     -530.518     903.649     236.996
  H     -530.727     905.289     236.376
  H     -521.530     904.689     241.560
  H     -522.917     903.843     242.206
  H     -522.821     905.584     242.325

 3  4  5  6  7  8  9  10  11  12  22  25  29  30  31  32 0
 6-311+G(2d,p)
 ****
 33  36  37 0
 6-311+G(2d,p)
 ****
 1  2  13  14  15  16  17  18  19  20  21  23  24  26 0
 3-21G
 ****
 27  28  34  35  38  39  40  41  42  43  44  45  46  47  48 0
 3-21G
 ****


