%nproc=1
%NoSave
%Mem=1900MB
#P OB98/GEN NMR

erre ene a

0 1
  C     -204.458     221.495    -148.139
  O     -203.656     221.127    -149.265
  P     -202.241     221.863    -149.412
  C     -201.701     222.287    -151.918
  O     -201.584     221.411    -150.804
  C     -200.978     221.697    -153.127
  O     -199.665     221.203    -152.777
  C     -201.701     220.506    -153.744
  O     -202.829     220.927    -154.493
  C     -200.582     219.891    -154.576
  O     -200.414     220.613    -155.808
  C     -199.355     220.110    -153.675
  N     -196.335     215.985    -153.488
  C     -196.460     216.972    -154.404
  N     -197.291     218.035    -154.381
  C     -198.040     218.030    -153.265
  C     -198.019     217.095    -152.243
  C     -197.118     216.027    -152.385
  N     -197.001     215.014    -151.462
  N     -198.934     217.424    -151.265
  C     -199.512     218.527    -151.700
  N     -198.996     218.937    -152.897
  O     -201.332     221.141    -148.310
  O     -202.306     223.339    -149.192
  H     -199.557     220.338    -156.190
  H     -201.165     221.748    -147.565
  H     -195.808     216.895    -155.269
  H     -200.302     219.059    -151.184
  H     -198.467     220.401    -154.248
  H     -200.765     218.843    -154.834
  H     -202.015     219.806    -152.960
  H     -200.863     222.491    -153.876
  H     -201.280     223.265    -151.676
  H     -196.388     214.244    -151.677
  H     -197.639     214.989    -150.679
  H     -202.763     222.445    -152.129
  P     -204.244     220.255    -154.151
  C     -205.242     219.905    -156.492
  O     -205.195     220.742    -155.352
  O     -204.741     221.148    -152.925
  O     -204.202     218.783    -153.914
  H     -204.610     222.098    -153.094
  H     -205.945     220.332    -157.211
  H     -205.582     218.904    -156.213
  H     -204.254     219.847    -156.956
  H     -205.371     220.937    -148.154
  H     -204.678     222.541    -148.185
  H     -203.925     221.282    -147.236

 3  4  5  6  7  8  9  10  11  12  22  25  29  30  31  32 0
 6-311+G(2d,p)
 ****
 33  36  37 0
 6-311+G(2d,p)
 ****
 1  2  13  14  15  16  17  18  19  20  21  23  24  26 0
 3-21G
 ****
 27  28  34  35  38  39  40  41  42  43  44  45  46  47  48 0
 3-21G
 ****


