%nproc=1
%NoSave
%Mem=1900MB
#P OB98/GEN NMR

erre ene a

0 1
  C      182.141      -1.062    1069.551
  O      181.314      -1.255    1070.682
  P      182.057      -1.430    1072.100
  C      179.722      -1.478    1073.234
  O      181.003      -2.095    1073.101
  C      178.712      -2.493    1073.785
  O      179.283      -3.192    1074.930
  C      177.388      -1.876    1074.293
  O      176.549      -1.518    1073.223
  C      176.877      -3.024    1075.165
  O      176.271      -4.037    1074.336
  C      178.172      -3.569    1075.799
  N      178.167      -4.616    1080.818
  C      177.844      -5.376    1079.736
  N      177.864      -5.022    1078.438
  C      178.247      -3.736    1078.291
  C      178.582      -2.850    1079.304
  C      178.550      -3.331    1080.610
  N      178.871      -2.570    1081.717
  N      178.919      -1.623    1078.792
  C      178.788      -1.768    1077.482
  N      178.412      -3.035    1077.131
  O      182.195       0.075    1072.648
  O      183.387      -2.121    1072.028
  H      176.024      -4.784    1074.919
  H      183.031       0.188    1073.149
  H      177.551      -6.383    1079.957
  H      178.995      -0.995    1076.742
  H      178.186      -4.667    1075.880
  H      176.138      -2.694    1075.892
  H      177.620      -1.008    1074.933
  H      178.505      -3.232    1073.013
  H      179.365      -1.137    1072.261
  H      178.677      -2.950    1082.629
  H      179.021      -1.572    1081.584
  H      179.817      -0.624    1073.918
  P      175.624      -0.205    1073.420
  C      175.429       0.025    1070.869
  O      174.734      -0.158    1072.095
  O      176.690       0.974    1073.179
  O      174.888      -0.142    1074.724
  H      177.214       0.851    1072.380
  H      174.732      -0.023    1070.070
  H      176.185      -0.747    1070.734
  H      175.918       1.028    1070.874
  H      181.532      -0.960    1068.677
  H      182.791      -1.904    1069.436
  H      182.726      -0.176    1069.684

 3  4  5  6  7  8  9  10  11  12  22  25  29  30  31  32 0
 6-311+G(2d,p)
 ****
 33  36  37 0
 6-311+G(2d,p)
 ****
 1  2  13  14  15  16  17  18  19  20  21  23  24  26 0
 3-21G
 ****
 27  28  34  35  38  39  40  41  42  43  44  45  46  47  48 0
 3-21G
 ****


