%nproc=1
%NoSave
%Mem=1900MB
#P OB98/GEN NMR

erre ene a

0 1
  C      292.638     237.487      79.477
  O      291.770     236.380      79.373
  P      291.788     235.220      80.485
  C      293.577     233.597      81.369
  O      293.174     234.433      80.289
  C      295.100     233.526      81.438
  O      295.686     234.855      81.570
  C      295.635     232.762      82.641
  O      295.375     231.380      82.708
  C      297.094     233.192      82.646
  O      297.856     232.438      81.701
  C      296.978     234.673      82.195
  N      297.169     235.604      83.312
  C      298.486     235.975      83.566
  O      299.451     235.572      82.914
  N      298.669     236.823      84.622
  C      297.696     237.281      85.466
  O      297.939     238.002      86.429
  C      296.327     236.833      85.158
  C      296.131     236.027      84.111
  O      290.577     234.353      80.512
  O      292.045     236.027      81.852
  H      298.681     232.928      81.535
  H      292.873     236.536      81.872
  H      299.618     237.098      84.842
  H      295.529     237.190      85.804
  H      295.130     235.685      83.861
  H      297.734     234.898      81.427
  H      297.561     233.052      83.625
  H      295.174     233.189      83.550
  H      295.468     233.103      80.496
  H      293.178     232.591      81.203
  H      293.152     233.973      82.311
  P      295.299     230.558      84.077
  C      296.994     229.935      85.929
  O      296.786     230.248      84.568
  O      294.302     229.440      84.128
  O      294.836     231.694      85.109
  H      294.297     231.297      85.814
  H      298.071     229.800      86.098
  H      296.487     229.009      86.194
  H      296.645     230.752      86.569
  H      292.478     238.145      78.649
  H      293.652     237.147      79.471
  H      292.442     238.009      80.390

 3  4  5  6  7  8  9  10  11  12  13  23  28  29  30  31  32 0
 6-311+G(2d,p)
 ****
 33  34 0
 6-311+G(2d,p)
 ****
 1  2  14  15  16  17  18  19  20  21  22  24  25  26  27 0
 3-21G
 ****
 35  36  37  38  39  40  41  42  43  44  45 0
 3-21G
 ****


