%nproc=1
%NoSave
%Mem=1900MB
#P OB98/GEN NMR

erre ene a

0 1
  C     -113.458     -37.890    -181.011
  O     -112.924     -38.832    -181.917
  H     -113.644     -38.390    -180.056
  H     -114.406     -37.498    -181.388
  H     -112.757     -37.068    -180.845
  P     -112.435     -38.329    -183.359
  C     -109.929     -38.672    -182.863
  O     -110.956     -37.739    -183.167
  C     -109.038     -38.882    -184.085
  O     -108.410     -37.639    -184.465
  C     -107.898     -39.870    -183.853
  O     -108.377     -41.200    -183.858
  C     -106.977     -39.504    -185.008
  O     -107.434     -40.087    -186.237
  C     -107.127     -37.965    -185.048
  N     -106.040     -37.270    -184.353
  C     -104.807     -37.263    -184.997
  O     -104.608     -37.803    -186.084
  N     -103.786     -36.646    -184.321
  C     -103.861     -36.133    -183.058
  O     -102.880     -35.792    -182.408
  C     -105.205     -36.103    -182.460
  C     -106.215     -36.679    -183.117
  O     -113.382     -37.438    -184.090
  O     -112.172     -39.691    -184.163
  H     -112.929     -39.865    -184.755
  H     -108.399     -39.938    -186.273
  H     -102.877     -36.677    -184.758
  H     -105.319     -35.646    -181.484
  H     -107.208     -36.693    -182.683
  H     -107.149     -37.609    -186.086
  H     -105.955     -39.851    -184.848
  H     -107.390     -39.642    -182.909
  H     -109.673     -39.211    -184.918
  H     -110.397     -39.625    -182.584
  H     -109.347     -38.301    -182.013
  P     -107.557     -42.378    -183.150
  C     -109.067     -42.363    -181.079
  O     -107.738     -42.224    -181.566
  O     -106.141     -42.523    -183.603
  O     -108.400     -43.700    -183.483
  H     -107.806     -44.366    -183.883
  H     -109.072     -42.243    -180.016
  H     -109.439     -43.335    -181.330
  H     -109.690     -41.617    -181.525

 6  7  8  9  10  11  12  13  14  15  16  27  31  32  33  34  35 0
 6-311+G(2d,p)
 ****
 36  37 0
 6-311+G(2d,p)
 ****
 1  2  3  4  5  17  18  19  20  21  22  23  24  25 0
 3-21G
 ****
 26  28  29  30  38  39  40  41  42  43  44  45 0
 3-21G
 ****


