%nproc=1
%NoSave
%Mem=1900MB
#P OB98/GEN NMR

erre ene a

0 1
  C     -702.964     398.619     380.721
  O     -701.909     399.510     380.411
  H     -703.535     399.026     381.558
  H     -702.560     397.644     381.011
  H     -703.629     398.506     379.859
  P     -700.913     399.050     379.240
  C     -698.773     397.590     379.172
  O     -699.968     397.917     379.867
  C     -697.892     396.675     380.020
  O     -697.177     397.439     381.018
  C     -698.650     395.582     380.764
  O     -698.878     394.464     379.926
  C     -697.685     395.276     381.902
  O     -696.618     394.411     381.459
  C     -697.147     396.670     382.252
  N     -697.591     397.365     387.234
  C     -696.774     396.514     386.525
  N     -695.963     395.700     387.249
  N     -696.745     396.449     385.219
  C     -697.644     397.271     384.628
  C     -698.512     398.161     385.218
  C     -698.488     398.261     386.665
  O     -699.130     399.055     387.348
  N     -699.251     398.838     384.279
  C     -698.853     398.327     383.126
  N     -697.885     397.375     383.287
  O     -699.927     400.303     379.077
  O     -701.562     398.707     377.942
  H     -696.049     394.191     382.216
  H     -699.717     400.420     378.130
  H     -697.546     397.394     388.238
  H     -699.230     398.625     382.157
  H     -696.102     396.637     382.583
  H     -698.182     394.750     382.718
  H     -696.147     395.502     388.220
  H     -699.591     395.967     381.178
  H     -695.420     395.025     386.726
  H     -697.137     396.238     379.357
  H     -698.230     398.512     378.945
  H     -699.027     397.088     378.235
  P     -700.066     393.458     380.313
  C     -700.104     390.965     381.032
  O     -699.415     392.204     381.086
  O     -700.485     392.841     378.893
  O     -701.231     394.095     380.987
  H     -701.335     393.233     378.605
  H     -699.559     390.229     381.586
  H     -700.193     390.651     380.013
  H     -701.079     391.080     381.456

 6  7  8  9  10  11  12  13  14  15  26  29  33  34 0
 6-311+G(2d,p)
 ****
 36  38  39  40  41 0
 6-311+G(2d,p)
 ****
 1  2  3  4  5  16  17  18  19  20  21  22  23  24  25 0
 3-21G
 ****
 27  28  30  31  32  35  37  42  43  44  45  46  47 0
 3-21G
 ****
 48  49 0
 3-21G
 ****


