%nproc=1
%NoSave
%Mem=1900MB
#P OB98/GEN NMR

erre ene a

0 1
  C      322.402     386.196    -516.399
  O      323.225     387.339    -516.264
  H      322.806     385.367    -515.806
  H      321.402     386.436    -516.031
  H      322.330     385.903    -517.450
  P      324.745     387.200    -516.759
  C      324.272     388.695    -518.833
  O      324.710     387.433    -518.348
  C      325.184     389.160    -519.965
  O      326.528     389.343    -519.470
  C      325.296     388.169    -521.119
  O      324.204     388.260    -522.015
  C      326.583     388.651    -521.773
  O      326.324     389.839    -522.540
  C      327.450     388.987    -520.544
  N      331.443     386.033    -521.761
  C      330.831     387.039    -522.421
  N      329.766     387.773    -522.029
  C      329.341     387.378    -520.820
  C      329.854     386.368    -520.032
  C      330.967     385.677    -520.543
  N      331.587     384.639    -519.880
  N      329.125     386.231    -518.865
  C      328.202     387.170    -518.938
  N      328.285     387.886    -520.107
  O      325.042     385.633    -516.630
  O      325.742     388.033    -516.028
  H      327.161     390.071    -522.987
  H      326.005     385.477    -516.591
  H      331.250     387.284    -523.395
  H      327.459     387.373    -518.177
  H      328.103     389.850    -520.716
  H      327.018     387.916    -522.447
  H      325.436     387.146    -520.762
  H      324.820     390.132    -520.316
  H      324.305     389.426    -518.017
  H      332.251     384.096    -520.408
  H      331.147     384.272    -519.046
  H      323.240     388.608    -519.187
  P      323.917     387.001    -522.968
  C      322.857     385.633    -521.024
  O      323.899     385.721    -522.002
  O      325.291     386.843    -523.772
  O      322.739     387.162    -523.873
  H      325.141     386.414    -524.634
  H      322.974     384.732    -520.458
  H      321.907     385.624    -521.515
  H      322.912     386.476    -520.368

 6  7  8  9  10  11  12  13  14  15  25  28  32  33  34  35 0
 6-311+G(2d,p)
 ****
 36  39  40 0
 6-311+G(2d,p)
 ****
 1  2  3  4  5  16  17  18  19  20  21  22  23  24 0
 3-21G
 ****
 26  27  29  30  31  37  38  41  42  43  44  45  46  47 0
 3-21G
 ****
 48 0
 3-21G
 ****


