%nproc=1
%NoSave
%Mem=1900MB
#P OB98/GEN NMR

erre ene a

0 1
  C      570.380     631.226     177.466
  O      570.399     632.009     178.669
  P      569.885     631.361     180.049
  C      568.456     633.392     180.815
  O      569.576     632.543     181.094
  C      568.533     634.671     181.676
  O      568.272     634.370     183.071
  C      569.917     635.302     181.657
  O      570.322     635.921     180.448
  C      569.872     636.185     182.893
  O      569.239     637.435     182.633
  C      569.020     635.326     183.855
  N      569.823     634.657     184.892
  C      570.241     635.448     185.952
  O      570.017     636.645     186.026
  N      570.984     634.796     186.914
  C      571.355     633.494     186.890
  O      572.023     632.969     187.783
  C      570.888     632.712     185.739
  C      570.158     633.319     184.797
  O      570.710     630.243     180.578
  O      568.406     630.853     179.660
  H      568.354     637.243     182.244
  H      568.272     629.988     180.092
  H      571.288     635.361     187.703
  H      571.175     631.661     185.688
  H      569.813     632.773     183.936
  H      568.278     635.949     184.376
  H      570.881     636.417     183.258
  H      570.660     634.523     181.865
  H      567.758     635.365     181.327
  H      567.531     632.860     181.015
  H      568.457     633.640     179.742
  P      571.586     635.404     179.595
  C      572.695     637.684     179.016
  O      571.977     636.543     178.542
  O      571.541     633.993     179.099
  O      572.770     635.535     180.673
  H      573.427     634.823     180.513
  H      572.858     638.362     178.167
  H      573.659     637.369     179.419
  H      572.120     638.209     179.769
  H      570.754     631.812     176.653
  H      569.376     630.922     177.254
  H      570.996     630.360     177.594

 3  4  5  6  7  8  9  10  11  12  13  23  28  29  30  31  32 0
 6-311+G(2d,p)
 ****
 33  34 0
 6-311+G(2d,p)
 ****
 1  2  14  15  16  17  18  19  20  21  22  24  25  26  27 0
 3-21G
 ****
 35  36  37  38  39  40  41  42  43  44  45 0
 3-21G
 ****


