%nproc=1
%NoSave
%Mem=1900MB
#P OB98/GEN NMR

erre ene a

0 1
  C     -504.652     252.544     671.572
  O     -505.156     253.092     672.776
  H     -505.357     252.765     670.766
  H     -504.548     251.461     671.662
  H     -503.682     252.992     671.316
  P     -504.222     253.071     674.080
  C     -505.618     251.053     674.891
  O     -505.048     252.306     675.225
  C     -507.011     250.898     675.523
  O     -506.855     250.908     676.972
  C     -507.998     252.032     675.165
  O     -509.314     251.456     675.188
  C     -507.786     252.981     676.335
  O     -508.763     253.980     676.403
  C     -507.723     251.953     677.480
  N     -507.228     252.468     678.752
  C     -508.156     252.971     679.649
  O     -509.372     253.015     679.461
  N     -507.648     253.451     680.828
  C     -506.333     253.459     681.193
  O     -505.931     253.873     682.278
  C     -505.385     252.917     680.199
  C     -505.883     252.446     679.037
  O     -503.646     254.386     674.483
  O     -503.076     252.011     673.709
  H     -502.262     252.485     673.453
  H     -509.620     253.572     676.645
  H     -508.306     253.811     681.493
  H     -504.340     252.915     680.440
  H     -505.208     252.033     678.289
  H     -508.710     251.502     677.634
  H     -506.827     253.497     676.223
  H     -507.802     252.472     674.182
  H     -507.419     249.917     675.251
  H     -504.952     250.256     675.261
  H     -505.691     250.965     673.799
  P     -510.097     250.991     673.869
  C     -512.060     252.612     674.374
  O     -511.664     251.280     674.093
  O     -509.789     249.589     673.440
  O     -509.680     252.048     672.734
  H     -509.760     251.629     671.853
  H     -513.122     252.650     674.498
  H     -511.772     253.248     673.563
  H     -511.584     252.943     675.273

 6  7  8  9  10  11  12  13  14  15  16  27  31  32  33  34  35 0
 6-311+G(2d,p)
 ****
 36  37 0
 6-311+G(2d,p)
 ****
 1  2  3  4  5  17  18  19  20  21  22  23  24  25 0
 3-21G
 ****
 26  28  29  30  38  39  40  41  42  43  44  45 0
 3-21G
 ****


