%nproc=1
%NoSave
%Mem=1900MB
#P OB98/GEN NMR

erre ene a

0 1
  C      -53.031       5.282      37.424
  O      -53.456       3.950      37.146
  P      -52.354       2.869      36.718
  C      -50.884       2.589      34.535
  O      -52.107       2.941      35.143
  C      -51.146       2.152      33.084
  O      -51.924       0.937      33.058
  C      -51.913       3.192      32.271
  O      -51.051       4.153      31.689
  C      -52.632       2.326      31.255
  O      -51.728       1.928      30.209
  C      -53.027       1.108      32.122
  N      -54.289       1.178      32.888
  C      -55.508       1.014      32.233
  O      -55.622       0.812      31.027
  N      -56.627       1.075      33.020
  C      -56.655       1.110      34.384
  O      -57.688       1.104      35.040
  C      -55.341       1.132      35.035
  C      -54.244       1.176      34.277
  O      -53.094       1.469      36.927
  O      -51.076       2.950      37.496
  H      -51.195       1.189      30.553
  H      -52.655       0.954      37.631
  H      -57.521       1.031      32.553
  H      -55.313       1.112      36.118
  H      -53.265       1.193      34.750
  H      -53.080       0.200      31.510
  H      -53.436       2.875      30.769
  H      -52.670       3.675      32.896
  H      -50.180       1.946      32.605
  H      -50.394       1.780      35.084
  H      -50.203       3.445      34.557
  P      -50.930       5.612      32.336
  C      -52.521       7.606      32.612
  O      -52.409       6.235      32.275
  O      -49.841       6.479      31.799
  O      -50.745       5.314      33.902
  H      -49.792       5.323      34.147
  H      -53.535       7.941      32.379
  H      -51.808       8.202      32.034
  H      -52.339       7.742      33.681
  H      -53.878       5.878      37.693
  H      -52.565       5.697      36.554
  H      -52.331       5.271      38.233

 3  4  5  6  7  8  9  10  11  12  13  23  28  29  30  31  32 0
 6-311+G(2d,p)
 ****
 33  34 0
 6-311+G(2d,p)
 ****
 1  2  14  15  16  17  18  19  20  21  22  24  25  26  27 0
 3-21G
 ****
 35  36  37  38  39  40  41  42  43  44  45 0
 3-21G
 ****


