%nproc=1
%NoSave
%Mem=1900MB
#P OB98/GEN NMR

erre ene a

0 1
  C     -157.509    -898.954     972.270
  O     -158.184    -900.170     972.551
  H     -158.091    -898.137     972.721
  H     -157.453    -898.792     971.198
  H     -156.503    -898.959     972.714
  P     -157.463    -901.557     972.156
  C     -159.847    -902.601     972.312
  O     -158.614    -902.513     971.572
  C     -160.890    -903.336     971.511
  O     -161.298    -902.510     970.377
  C     -160.427    -904.660     970.892
  O     -160.364    -905.673     971.865
  C     -161.471    -904.856     969.797
  O     -162.675    -905.437     970.349
  C     -161.722    -903.400     969.323
  N     -161.031    -903.133     968.065
  C     -161.456    -903.820     966.955
  O     -162.379    -904.666     966.964
  N     -160.743    -903.608     965.787
  C     -159.607    -902.865     965.690
  O     -158.880    -902.888     964.708
  C     -159.249    -902.096     966.875
  C     -159.928    -902.260     968.012
  O     -156.609    -902.161     973.207
  O     -156.627    -901.172     970.839
  H     -155.688    -901.073     971.104
  H     -163.309    -905.483     969.611
  H     -161.024    -904.145     964.986
  H     -158.372    -901.426     966.812
  H     -159.664    -901.724     968.915
  H     -162.804    -903.246     969.192
  H     -161.122    -905.520     969.023
  H     -159.440    -904.517     970.415
  H     -161.788    -903.495     972.159
  H     -160.170    -901.585     972.551
  H     -159.637    -903.131     973.260
  P     -159.533    -907.036     971.557
  C     -161.209    -908.264     973.109
  O     -160.506    -908.277     971.859
  O     -158.184    -907.143     972.186
  O     -159.418    -907.058     969.946
  H     -158.484    -907.224     969.708
  H     -161.818    -909.141     973.185
  H     -161.829    -907.393     973.161
  H     -160.505    -908.248     973.914

 6  7  8  9  10  11  12  13  14  15  16  27  31  32  33  34  35 0
 6-311+G(2d,p)
 ****
 36  37 0
 6-311+G(2d,p)
 ****
 1  2  3  4  5  17  18  19  20  21  22  23  24  25 0
 3-21G
 ****
 26  28  29  30  38  39  40  41  42  43  44  45 0
 3-21G
 ****


