%nproc=1
%NoSave
%Mem=1900MB
#P OB98/GEN NMR

erre ene a

0 1
  C       41.428      28.095      23.363
  O       40.692      28.493      22.223
  H       42.231      28.817      23.531
  H       41.871      27.109      23.193
  H       40.783      28.069      24.245
  P       39.354      27.664      21.903
  C       37.790      29.772      21.955
  O       38.354      28.708      21.210
  C       38.108      31.117      21.298
  O       39.495      31.447      21.562
  C       37.906      31.123      19.781
  O       37.423      32.411      19.395
  C       39.314      30.932      19.241
  O       39.448      31.416      17.908
  C       40.143      31.682      20.295
  N       41.539      31.251      20.317
  C       42.505      32.254      20.436
  O       42.166      33.437      20.505
  N       43.830      31.904      20.434
  C       44.168      30.665      20.260
  N       45.498      30.385      20.241
  C       43.185      29.578      20.084
  C       41.902      29.937      20.132
  O       38.738      27.460      23.365
  O       39.579      26.398      21.146
  H       39.164      32.357      17.887
  H       38.764      28.263      23.912
  H       43.514      28.561      19.931
  H       41.113      29.203      20.021
  H       40.120      32.763      20.105
  H       39.575      29.868      19.240
  H       37.214      30.350      19.443
  H       37.500      31.891      21.779
  H       46.138      31.163      20.342
  H       38.178      29.768      22.978
  H       45.875      29.467      20.057
  H       36.708      29.617      22.001
  P       36.091      32.521      18.515
  C       34.914      34.445      19.780
  O       35.540      34.025      18.573
  O       35.070      31.459      18.748
  O       36.655      32.424      17.011
  H       36.041      31.865      16.498
  H       34.596      35.462      19.682
  H       35.610      34.365      20.589
  H       34.066      33.823      19.977

 6  7  8  9  10  11  12  13  14  15  16  26  30  31  32  33  35 0
 6-311+G(2d,p)
 ****
 37  38 0
 6-311+G(2d,p)
 ****
 1  2  3  4  5  17  18  19  20  21  22  23  24  25 0
 3-21G
 ****
 27  28  29  34  36  39  40  41  42  43  44  45  46 0
 3-21G
 ****


