%nproc=1
%NoSave
%Mem=1900MB
#P OB98/GEN NMR

erre ene a

0 1
  C      197.659     461.253     376.173
  O      196.720     460.203     376.241
  H      198.343     461.172     377.022
  H      197.143     462.219     376.232
  H      198.238     461.201     375.247
  P      195.714     459.980     375.017
  C      193.700     459.918     376.639
  O      194.414     459.251     375.608
  C      192.711     458.957     377.327
  O      193.481     457.968     378.088
  C      191.754     459.642     378.323
  O      190.541     458.877     378.326
  C      192.523     459.474     379.620
  O      191.742     459.777     380.753
  C      192.998     458.022     379.442
  N      194.025     457.590     380.373
  C      193.684     457.492     381.717
  O      192.572     457.749     382.181
  N      194.684     457.075     382.565
  C      195.963     456.757     382.199
  O      196.809     456.363     382.996
  C      196.266     456.882     380.766
  C      195.300     457.277     379.928
  O      196.297     459.343     373.795
  O      195.168     461.459     374.707
  H      195.630     461.816     373.923
  H      192.291     459.662     381.553
  H      194.457     457.006     383.546
  H      197.270     456.636     380.444
  H      195.495     457.369     378.862
  H      192.138     457.343     379.504
  H      193.373     460.161     379.644
  H      191.534     460.683     378.057
  H      192.162     458.412     376.555
  H      193.151     460.753     376.192
  H      194.415     460.303     377.375
  P      189.102     459.502     378.688
  C      188.349     457.342     379.894
  O      188.064     458.282     378.873
  O      188.635     460.547     377.723
  O      189.256     460.108     380.169
  H      188.618     460.835     380.286
  H      187.588     456.590     379.909
  H      188.377     457.841     380.840
  H      189.298     456.885     379.703

 6  7  8  9  10  11  12  13  14  15  16  27  31  32  33  34  35 0
 6-311+G(2d,p)
 ****
 36  37 0
 6-311+G(2d,p)
 ****
 1  2  3  4  5  17  18  19  20  21  22  23  24  25 0
 3-21G
 ****
 26  28  29  30  38  39  40  41  42  43  44  45 0
 3-21G
 ****


