%nproc=1
%NoSave
%Mem=1900MB
#P OB98/GEN NMR

erre ene a

0 1
  C     -192.170    -669.361    -504.606
  O     -191.142    -670.302    -504.782
  P     -190.543    -670.588    -506.252
  C     -188.576    -668.916    -506.322
  O     -188.977    -670.286    -506.148
  C     -187.199    -668.683    -505.723
  O     -187.218    -668.764    -504.290
  C     -186.144    -669.702    -506.166
  O     -185.707    -669.440    -507.485
  C     -185.076    -669.519    -505.082
  O     -184.241    -668.402    -505.398
  C     -185.935    -669.209    -503.824
  N     -186.058    -670.375    -502.970
  C     -185.426    -670.293    -501.705
  O     -184.758    -669.270    -501.431
  N     -185.477    -671.349    -500.853
  C     -186.112    -672.437    -501.202
  N     -186.139    -673.459    -500.313
  C     -186.796    -672.594    -502.525
  C     -186.705    -671.538    -503.339
  O     -191.271    -669.927    -507.365
  O     -190.583    -672.214    -506.334
  H     -183.514    -668.749    -505.969
  H     -191.523    -672.532    -506.471
  H     -187.287    -673.505    -502.776
  H     -187.169    -671.544    -504.310
  H     -185.493    -668.377    -503.267
  H     -184.446    -670.394    -504.975
  H     -186.569    -670.709    -506.092
  H     -186.871    -667.665    -506.007
  H     -185.653    -673.329    -499.438
  H     -189.308    -668.292    -505.787
  H     -186.590    -674.358    -500.510
  H     -188.613    -668.659    -507.383
  P     -185.357    -670.653    -508.474
  C     -187.765    -671.304    -509.157
  O     -186.550    -670.729    -509.578
  O     -185.006    -671.943    -507.803
  O     -184.118    -670.085    -509.319
  H     -183.437    -670.807    -509.380
  H     -188.540    -670.994    -509.861
  H     -188.010    -670.960    -508.147
  H     -187.668    -672.382    -509.167
  H     -192.433    -669.310    -503.570
  H     -193.025    -669.656    -505.177
  H     -191.834    -668.400    -504.936

 3  4  5  6  7  8  9  10  11  12  13  23  27  28  29  30  32 0
 6-311+G(2d,p)
 ****
 34  35 0
 6-311+G(2d,p)
 ****
 1  2  14  15  16  17  18  19  20  21  22  24  25  26 0
 3-21G
 ****
 31  33  36  37  38  39  40  41  42  43  44  45  46 0
 3-21G
 ****


