%nproc=1
%NoSave
%Mem=1900MB
#P OB98/GEN NMR

erre ene a

0 1
  C     -188.841     294.606      -4.690
  O     -189.313     295.942      -4.678
  H     -189.543     293.990      -5.257
  H     -188.775     294.221      -3.668
  H     -187.860     294.560      -5.176
  P     -188.403     297.016      -3.914
  C     -189.585     297.299      -1.627
  O     -189.430     297.789      -2.952
  C     -190.440     298.256      -0.800
  O     -189.822     299.554      -0.736
  C     -191.842     298.489      -1.353
  O     -192.712     297.429      -0.994
  C     -192.213     299.785      -0.651
  O     -192.632     299.506       0.699
  C     -190.873     300.552      -0.635
  N     -191.789     305.370      -2.158
  C     -192.241     304.664      -1.101
  N     -191.992     303.373      -0.780
  C     -191.175     302.807      -1.689
  C     -190.638     303.406      -2.820
  C     -190.961     304.756      -3.037
  N     -190.493     305.482      -4.112
  N     -189.852     302.512      -3.518
  C     -189.874     301.414      -2.794
  N     -190.694     301.526      -1.696
  O     -187.536     297.866      -4.781
  O     -187.615     296.075      -2.885
  H     -192.798     300.363       1.137
  H     -188.203     295.377      -2.543
  H     -192.890     305.206      -0.415
  H     -189.308     300.512      -3.008
  H     -190.727     301.092       0.308
  H     -193.038     300.303      -1.142
  H     -191.819     298.660      -2.436
  H     -190.486     297.868       0.227
  H     -188.613     297.160      -1.149
  H     -190.909     306.385      -4.284
  H     -189.980     304.985      -4.831
  H     -190.076     296.320      -1.698
  P     -193.544     296.642      -2.113
  C     -195.778     297.843      -1.671
  O     -195.072     296.615      -1.607
  O     -192.995     295.313      -2.497
  O     -193.597     297.647      -3.361
  H     -193.517     297.156      -4.198
  H     -196.775     297.700      -1.311
  H     -195.810     298.183      -2.685
  H     -195.281     298.572      -1.066

 6  7  8  9  10  11  12  13  14  15  25  28  32  33  34  35 0
 6-311+G(2d,p)
 ****
 36  39  40 0
 6-311+G(2d,p)
 ****
 1  2  3  4  5  16  17  18  19  20  21  22  23  24 0
 3-21G
 ****
 26  27  29  30  31  37  38  41  42  43  44  45  46  47 0
 3-21G
 ****
 48 0
 3-21G
 ****


