%nproc=1
%NoSave
%Mem=1900MB
#P OB98/GEN NMR

erre ene a

0 1
  C      -87.399      -3.750     112.738
  O      -86.141      -3.107     112.676
  H      -87.806      -3.823     111.726
  H      -88.089      -3.168     113.354
  H      -87.291      -4.758     113.149
  P      -85.349      -2.937     114.061
  C      -86.363      -0.546     114.204
  O      -86.104      -1.776     114.871
  C      -87.171       0.377     115.114
  O      -88.543      -0.074     115.160
  C      -86.695       0.397     116.564
  O      -85.557       1.224     116.738
  C      -87.938       0.920     117.273
  O      -88.015       2.350     117.218
  C      -89.077       0.303     116.449
  N      -93.429      -1.710     118.182
  C      -93.167      -0.565     117.512
  N      -91.974      -0.109     117.067
  C      -90.995      -0.977     117.372
  C      -91.110      -2.176     118.054
  C      -92.401      -2.542     118.467
  N      -92.664      -3.690     119.181
  N      -89.870      -2.765     118.214
  C      -89.023      -1.941     117.631
  N      -89.661      -0.851     117.104
  O      -83.976      -2.250     113.605
  O      -85.118      -4.201     114.823
  H      -88.814       2.607     117.718
  H      -83.294      -2.937     113.475
  H      -94.024       0.071     117.310
  H      -87.952      -2.084     117.571
  H      -89.889       1.018     116.265
  H      -87.942       0.635     118.327
  H      -86.492      -0.624     116.911
  H      -87.159       1.389     114.686
  H      -86.938      -0.744     113.290
  H      -85.409      -0.081     113.931
  H      -93.614      -3.878     119.465
  H      -91.891      -4.264     119.492
  P      -84.593       0.942     117.985
  C      -85.955       2.679     119.361
  O      -85.374       1.384     119.315
  O      -83.453       2.054     117.825
  O      -84.023      -0.438     118.036
  H      -82.652       1.668     117.424
  H      -86.436       2.821     120.306
  H      -86.676       2.774     118.576
  H      -85.191       3.417     119.235

 6  7  8  9  10  11  12  13  14  15  25  28  32  33  34  35 0
 6-311+G(2d,p)
 ****
 36  37  40 0
 6-311+G(2d,p)
 ****
 1  2  3  4  5  16  17  18  19  20  21  22  23  24 0
 3-21G
 ****
 26  27  29  30  31  38  39 41  42  43  44  45  46  47  48 0
 3-21G
 ****


