%nproc=1
%NoSave
%Mem=1900MB
#P OB98/GEN NMR

erre ene a

0 1
  C      356.507    -231.971    -306.816
  O      357.449    -232.388    -307.786
  H      355.553    -231.778    -307.312
  H      356.834    -231.056    -306.319
  H      356.358    -232.764    -306.072
  P      358.991    -232.486    -307.346
  C      360.695    -230.847    -306.306
  O      359.411    -230.999    -306.903
  C      361.404    -229.599    -306.840
  O      360.535    -228.452    -306.730
  C      362.658    -229.224    -306.065
  O      363.733    -230.130    -306.232
  C      362.845    -227.763    -306.430
  O      363.568    -227.568    -307.642
  C      361.379    -227.288    -306.616
  N      360.950    -226.411    -305.531
  C      361.681    -225.233    -305.380
  O      362.649    -224.940    -306.088
  N      361.292    -224.416    -304.356
  C      360.294    -224.681    -303.458
  O      360.018    -223.923    -302.535
  C      359.575    -225.949    -303.656
  C      359.931    -226.743    -304.665
  O      359.919    -233.099    -308.356
  O      358.939    -233.275    -305.956
  H      363.438    -226.639    -307.906
  H      359.832    -233.635    -305.715
  H      361.803    -223.557    -304.241
  H      358.780    -226.191    -302.958
  H      359.412    -227.685    -304.832
  H      361.276    -226.731    -307.556
  H      363.383    -227.218    -305.644
  H      362.414    -229.248    -304.996
  H      361.627    -229.755    -307.900
  H      361.289    -231.735    -306.559
  H      360.591    -230.790    -305.217
  P      365.006    -230.167    -305.275
  C      367.021    -228.609    -304.748
  O      365.755    -228.744    -305.381
  O      365.830    -231.406    -305.295
  O      364.315    -230.067    -303.821
  H      364.856    -230.595    -303.198
  H      367.393    -227.618    -304.902
  H      367.706    -229.316    -305.166
  H      366.916    -228.791    -303.699

 6  7  8  9  10  11  12  13  14  15  16  26  31  32  33  34  35 0
 6-311+G(2d,p)
 ****
 36  37 0
 6-311+G(2d,p)
 ****
 1  2  3  4  5  17  18  19  20  21  22  23  24  25 0
 3-21G
 ****
 27  28  29  30  38  39  40  41  42  43  44  45 0
 3-21G
 ****


