%nproc=1
%NoSave
%Mem=1900MB
#P OB98/GEN NMR

erre ene a

0 1
  C       80.380     -34.195     192.062
  O       80.871     -33.475     193.201
  P       82.433     -33.260     193.506
  C       82.534     -34.635     195.698
  O       82.647     -33.351     195.095
  C       81.828     -34.540     197.054
  O       80.424     -34.240     196.867
  C       81.828     -35.817     197.878
  O       83.096     -36.093     198.447
  C       80.733     -35.514     198.900
  O       81.246     -34.759     200.007
  C       79.753     -34.650     198.082
  N       78.505     -35.333     197.785
  C       77.335     -34.738     198.267
  O       77.393     -33.732     198.975
  N       76.129     -35.309     197.945
  C       76.099     -36.430     197.295
  N       74.874     -36.940     196.989
  C       77.314     -37.160     196.889
  C       78.471     -36.558     197.159
  O       83.005     -32.024     192.893
  O       83.158     -34.572     192.945
  H       84.081     -34.359     192.712
  H       81.855     -35.348     200.492
  H       77.246     -38.114     196.384
  H       79.414     -37.019     196.883
  H       79.535     -33.719     198.618
  H       80.288     -36.426     199.310
  H       81.513     -36.657     197.246
  H       82.288     -33.718     197.621
  H       74.061     -36.408     197.274
  H       83.543     -35.034     195.854
  H       74.740     -37.793     196.466
  H       81.996     -35.305     195.021
  P       83.470     -37.636     198.673
  C       83.795     -38.125     201.203
  O       84.390     -37.728     199.982
  O       84.479     -37.960     197.471
  O       82.300     -38.567     198.662
  H       84.307     -38.856     197.130
  H       84.559     -38.598     201.826
  H       82.977     -38.835     201.042
  H       83.413     -37.242     201.720
  H       79.310     -34.201     192.078
  H       80.743     -35.201     192.092
  H       80.720     -33.720     191.166

 3  4  5  6  7  8  9  10  11  12  13  24  27  28  29  30  32 0
 6-311+G(2d,p)
 ****
 34  35 0
 6-311+G(2d,p)
 ****
 1  2  14  15  16  17  18  19  20  21  22  23  25  26 0
 3-21G
 ****
 31  33  36  37  38  39  40  41  42  43  44  45  46 0
 3-21G
 ****


