%nproc=1
%NoSave
%Mem=1900MB
#P OB98/GEN NMR

erre ene a

0 1
  C     -899.196     457.516    -221.593
  O     -898.096     456.631    -221.812
  P     -897.326     455.833    -220.666
  C     -896.416     453.718    -221.917
  O     -896.136     454.996    -221.352
  C     -895.176     453.105    -222.626
  O     -894.806     453.901    -223.770
  C     -893.966     453.119    -221.661
  O     -893.796     452.081    -220.720
  C     -892.766     453.313    -222.604
  O     -892.186     452.065    -222.979
  C     -893.386     454.017    -223.817
  N     -890.186     457.410    -225.931
  C     -890.206     456.037    -226.058
  N     -889.206     455.490    -226.807
  N     -891.086     455.267    -225.488
  C     -891.966     455.931    -224.724
  C     -892.056     457.290    -224.493
  C     -891.096     458.149    -225.169
  O     -891.056     459.372    -225.103
  N     -893.076     457.610    -223.622
  C     -893.576     456.436    -223.295
  N     -892.966     455.386    -223.923
  O     -898.196     455.102    -219.687
  O     -896.546     457.006    -219.857
  H     -891.806     451.654    -222.186
  H     -896.506     456.711    -218.929
  H     -889.496     457.973    -226.408
  H     -894.416     456.297    -222.604
  H     -893.066     453.503    -224.748
  H     -891.996     453.885    -222.097
  H     -888.426     456.016    -227.163
  H     -894.026     454.034    -221.084
  H     -889.096     454.481    -226.715
  H     -895.406     452.111    -223.002
  H     -897.226     453.847    -222.633
  H     -896.766     453.035    -221.148
  P     -893.906     452.258    -219.121
  C     -893.616     449.696    -218.975
  O     -893.216     450.961    -218.441
  O     -895.476     452.015    -218.807
  O     -893.446     453.562    -218.590
  H     -895.686     452.331    -217.921
  H     -893.336     448.902    -218.254
  H     -893.086     449.504    -219.917
  H     -894.696     449.647    -219.153
  H     -899.523     457.917    -222.530
  H     -898.889     458.315    -220.951
  H     -900.000     456.979    -221.134

 3  4  5  6  7  8  9  10  11  12  23  26  30  31 0
 6-311+G(2d,p)
 ****
 33  35  36  37  38 0
 6-311+G(2d,p)
 ****
 1  2  13  14  15  16  17  18  19  20  21  22  24  25 0
 3-21G
 ****
 27  28  29  32  34  39  40  41  42  43  44  45  46  47  48  49 0
 3-21G
 ****


