%nproc=1
%NoSave
%Mem=1900MB
#P OB98/GEN NMR

erre ene a

0 1
  C     -441.079     455.196    -240.809
  O     -441.202     454.219    -239.795
  H     -442.004     455.217    -241.392
  H     -440.247     454.948    -241.474
  H     -440.916     456.181    -240.365
  P     -439.900     453.959    -238.892
  C     -437.807     452.511    -239.468
  O     -438.826     453.381    -239.938
  C     -437.254     451.692    -240.631
  O     -438.258     450.779    -241.129
  C     -436.828     452.527    -241.834
  O     -435.565     453.143    -241.662
  C     -436.794     451.455    -242.912
  O     -435.605     450.655    -242.753
  C     -438.063     450.640    -242.564
  N     -439.250     451.092    -243.289
  C     -439.389     450.644    -244.610
  O     -438.537     449.919    -245.116
  N     -440.477     451.061    -245.340
  C     -441.358     451.848    -244.798
  N     -442.407     452.237    -245.570
  C     -441.258     452.328    -243.404
  C     -440.196     451.921    -242.720
  O     -440.287     452.659    -238.036
  O     -439.428     455.117    -238.075
  H     -435.721     449.865    -243.314
  H     -439.497     452.344    -237.534
  H     -442.013     452.989    -243.003
  H     -440.056     452.233    -241.693
  H     -437.911     449.575    -242.773
  H     -436.776     451.862    -243.920
  H     -437.591     453.264    -242.104
  H     -436.420     451.085    -240.250
  H     -442.416     451.945    -246.536
  H     -438.237     451.850    -238.710
  H     -443.038     452.984    -245.297
  H     -436.994     453.090    -239.016
  P     -435.339     454.581    -242.340
  C     -434.879     455.388    -244.768
  O     -435.407     454.366    -243.930
  O     -433.787     454.862    -242.073
  O     -436.208     455.674    -241.804
  H     -433.632     455.806    -241.863
  H     -434.995     455.104    -245.793
  H     -433.840     455.526    -244.551
  H     -435.405     456.303    -244.590

 6  7  8  9  10  11  12  13  14  15  16  26  30  31  32  33  35 0
 6-311+G(2d,p)
 ****
 37  38 0
 6-311+G(2d,p)
 ****
 1  2  3  4  5  17  18  19  20  21  22  23  24  25 0
 3-21G
 ****
 27  28  29  34  36  39  40  41  42  43  44  45  46 0
 3-21G
 ****


