%nproc=1
%NoSave
%Mem=1900MB
#P OB98/GEN NMR

erre ene a

0 1
  C     -280.367      53.402       8.566
  O     -281.564      54.145       8.442
  H     -279.614      54.030       9.051
  H     -279.994      53.108       7.582
  H     -280.531      52.513       9.182
  P     -282.825      53.440       7.753
  C     -284.731      53.884       9.437
  O     -284.110      54.279       8.221
  C     -285.410      55.082      10.089
  O     -284.504      55.745      10.994
  C     -285.882      56.144       9.096
  O     -287.121      55.765       8.517
  C     -285.991      57.351      10.014
  O     -287.191      57.251      10.804
  C     -284.751      57.176      10.904
  N     -282.230      61.552      10.469
  C     -283.479      61.297      11.001
  N     -284.173      62.370      11.440
  N     -284.008      60.104      11.076
  C     -283.228      59.140      10.533
  C     -281.985      59.271       9.963
  C     -281.385      60.588       9.935
  O     -280.274      60.856       9.489
  N     -281.531      58.076       9.461
  C     -282.486      57.218       9.763
  N     -283.546      57.818      10.401
  O     -282.958      51.961       7.969
  O     -282.683      53.812       6.205
  H     -287.938      57.308      10.182
  H     -282.194      53.122       5.719
  H     -281.885      62.497      10.424
  H     -282.457      56.159       9.545
  H     -284.914      57.544      11.923
  H     -286.033      58.296       9.476
  H     -283.940      63.314      11.150
  H     -285.119      56.357       8.335
  H     -285.108      62.211      11.790
  H     -286.248      54.708      10.690
  H     -283.949      53.485      10.093
  H     -285.469      53.100       9.251
  P     -287.173      54.863       7.189
  C     -289.678      54.233       7.275
  O     -288.675      55.018       6.646
  O     -286.717      53.456       7.370
  O     -286.329      55.683       6.112
  H     -285.363      55.473       6.122
  H     -290.625      54.432       6.819
  H     -289.724      54.480       8.315
  H     -289.440      53.196       7.165

 6  7  8  9  10  11  12  13  14  15  26  29  33  34 0
 6-311+G(2d,p)
 ****
 36  38  39  40  41 0
 6-311+G(2d,p)
 ****
 1  2  3  4  5  16  17  18  19  20  21  22  23  24  25 0
 3-21G
 ****
 27  28  30  31  32  35  37  42  43  44  45  46  47 0
 3-21G
 ****
 48  49 0
 3-21G
 ****


