%nproc=1
%NoSave
%Mem=1900MB
#P OB98/GEN NMR

erre ene a

0 1
  C      332.692     200.130      58.314
  O      333.579     199.407      59.173
  P      332.982     198.099      59.888
  C      335.348     197.043      59.684
  O      334.205     197.264      60.500
  C      336.616     197.472      60.419
  O      336.648     198.900      60.639
  C      336.747     196.853      61.806
  O      337.133     195.491      61.722
  C      337.794     197.772      62.431
  O      339.109     197.409      61.983
  C      337.404     199.142      61.853
  N      336.999     203.711      64.117
  C      337.912     203.206      63.257
  N      337.951     201.978      62.700
  C      336.903     201.241      63.104
  C      335.893     201.618      63.973
  C      335.965     202.919      64.493
  N      335.046     203.428      65.384
  N      334.991     200.589      64.151
  C      335.465     199.598      63.420
  N      336.611     199.948      62.761
  O      332.484     197.204      58.660
  O      331.873     198.392      60.843
  H      339.092     197.399      61.003
  H      331.511     197.191      58.628
  H      338.718     203.878      62.979
  H      335.014     198.617      63.340
  H      338.281     199.739      61.574
  H      337.796     197.734      63.525
  H      335.799     196.939      62.352
  H      337.479     197.194      59.802
  H      335.257     197.602      58.748
  H      335.215     204.344      65.768
  H      334.321     202.821      65.739
  H      335.387     195.982      59.413
  P      335.972     194.395      61.559
  C      337.057     192.083      61.300
  O      336.608     193.072      62.211
  O      336.033     194.086      59.996
  O      334.641     194.806      62.093
  H      336.951     193.965      59.687
  H      337.495     191.257      61.869
  H      337.818     192.496      60.635
  H      336.213     191.702      60.717
  H      333.204     200.974      57.901
  H      331.846     200.466      58.876
  H      332.362     199.490      57.522

 3  4  5  6  7  8  9  10  11  12  22  25  29  30  31  32 0
 6-311+G(2d,p)
 ****
 33  36  37 0
 6-311+G(2d,p)
 ****
 1  2  13  14  15  16  17  18  19  20  21  23  24  26 0
 3-21G
 ****
 27  28  34  35  38  39  40  41  42  43  44  45  46  47  48 0
 3-21G
 ****


