%nproc=1
%NoSave
%Mem=1900MB
#P OB98/GEN NMR

erre ene a

0 1
  C       25.999     -25.659      99.615
  O       27.201     -25.900     100.316
  P       27.849     -27.361     100.372
  C       28.859     -26.801     102.658
  O       29.113     -27.310     101.355
  C       29.739     -25.589     102.963
  O       31.135     -25.967     102.853
  C       29.503     -24.393     102.032
  O       29.614     -23.206     102.827
  C       30.655     -24.485     101.052
  O       30.934     -23.244     100.422
  C       31.763     -25.020     101.966
  N       32.853     -25.630     101.222
  C       33.816     -24.769     100.692
  O       33.654     -23.549     100.748
  N       34.926     -25.317     100.098
  C       34.974     -26.596      99.884
  N       36.121     -27.103      99.357
  C       33.857     -27.504     100.210
  C       32.859     -26.970     100.908
  O       28.126     -27.982      99.042
  O       26.785     -28.233     101.197
  H       26.554     -29.028     100.680
  H       31.117     -22.574     101.113
  H       33.889     -28.538      99.901
  H       32.004     -27.560     101.219
  H       32.169     -24.213     102.590
  H       30.417     -25.218     100.272
  H       28.518     -24.415     101.554
  H       29.564     -25.295     104.004
  H       36.880     -26.455      99.185
  H       29.078     -27.590     103.381
  H       36.369     -28.086      99.451
  H       27.799     -26.543     102.757
  P       28.481     -22.078     102.676
  C       30.401     -20.334     102.744
  O       29.104     -20.687     103.171
  O       27.490     -22.449     103.884
  O       27.722     -22.061     101.387
  H       26.597     -22.119     103.677
  H       30.685     -19.398     103.229
  H       30.419     -20.187     101.661
  H       31.124     -21.107     103.024
  H       25.738     -24.625      99.700
  H       25.217     -26.260     100.031
  H       26.131     -25.910      98.583

 3  4  5  6  7  8  9  10  11  12  13  24  27  28  29  30  32 0
 6-311+G(2d,p)
 ****
 34  35 0
 6-311+G(2d,p)
 ****
 1  2  14  15  16  17  18  19  20  21  22  23  25  26 0
 3-21G
 ****
 31  33  36  37  38  39  40  41  42  43  44  45  46 0
 3-21G
 ****


