%nproc=1
%NoSave
%Mem=1900MB
#P OB98/GEN NMR

erre ene a

0 1
  C      369.126     645.907    -899.160
  O      368.494     647.102    -899.600
  P      368.130     648.203    -898.500
  C      366.931     648.091    -896.180
  O      367.097     647.541    -897.490
  C      366.862     646.979    -895.130
  O      367.979     646.061    -895.300
  C      366.927     647.466    -893.700
  O      365.686     647.997    -893.260
  C      367.341     646.212    -892.940
  O      366.214     645.371    -892.660
  C      368.264     645.510    -893.980
  N      369.695     645.678    -893.640
  C      370.203     644.781    -892.720
  O      369.518     643.922    -892.170
  N      371.541     644.932    -892.400
  C      372.370     645.886    -892.880
  O      373.518     646.009    -892.510
  C      371.764     646.829    -893.860
  C      370.475     646.681    -894.170
  O      367.254     649.275    -899.300
  O      369.328     648.844    -897.830
  H      365.805     645.160    -893.530
  H      367.430     650.167    -898.960
  H      371.925     644.287    -891.730
  H      372.398     647.632    -894.250
  H      370.023     647.373    -894.870
  H      368.046     644.444    -894.030
  H      367.828     646.421    -891.990
  H      367.731     648.217    -893.580
  H      365.931     646.409    -895.290
  H      366.009     648.685    -896.150
  H      367.786     648.741    -895.970
  P      365.688     648.807    -891.870
  C      366.818     648.285    -889.580
  O      366.264     647.798    -890.790
  O      364.093     648.892    -891.590
  O      366.374     650.139    -891.990
  H      363.629     648.105    -891.910
  H      366.296     649.165    -889.240
  H      367.874     648.523    -889.740
  H      366.763     647.481    -888.820
  H      369.307     645.269    -900.000
  H      368.491     645.404    -898.461
  H      370.055     646.148    -898.688

 3  4  5  6  7  8  9  10  11  12  13  23  28  29  30  31  32 0
 6-311+G(2d,p)
 ****
 33  34 0
 6-311+G(2d,p)
 ****
 1  2  14  15  16  17  18  19  20  21  22  24  25  26 0
 3-21G
 ****
 27  35  36  37  38  39  40  41  42  43  44  45 0
 3-21G
 ****


