%nproc=1
%NoSave
%Mem=1900MB
#P OB98/GEN NMR

erre ene a

0 1
  C     -346.063     133.891    -112.610
  O     -344.769     134.294    -113.009
  H     -346.095     132.806    -112.475
  H     -346.306     134.373    -111.658
  H     -346.803     134.196    -113.357
  P     -344.224     133.673    -114.387
  C     -344.089     135.527    -116.190
  O     -343.419     134.847    -115.136
  C     -343.208     136.656    -116.727
  O     -342.811     137.491    -115.606
  C     -341.933     136.171    -117.442
  O     -341.799     136.806    -118.720
  C     -340.803     136.644    -116.545
  O     -339.637     137.018    -117.272
  C     -341.430     137.828    -115.815
  N     -338.530     141.178    -113.293
  C     -339.334     141.328    -114.369
  N     -340.155     140.417    -114.933
  C     -340.120     139.258    -114.250
  C     -339.369     138.968    -113.123
  C     -338.525     139.986    -112.650
  N     -337.665     139.821    -111.588
  N     -339.593     137.666    -112.706
  C     -340.431     137.169    -113.592
  N     -340.767     138.087    -114.554
  O     -345.557     133.508    -115.264
  O     -343.500     132.380    -114.241
  H     -339.009     137.404    -116.635
  H     -345.678     132.562    -115.476
  H     -339.309     142.303    -114.845
  H     -340.789     136.144    -113.615
  H     -341.395     138.746    -116.418
  H     -340.539     135.838    -115.849
  H     -341.912     135.087    -117.574
  H     -343.811     137.281    -117.400
  H     -345.027     135.954    -115.815
  H     -337.013     140.559    -111.390
  H     -337.575     138.900    -111.177
  H     -344.321     134.813    -116.986
  P     -342.477     136.042    -119.967
  C     -345.074     135.969    -119.879
  O     -343.913     136.712    -120.238
  O     -342.822     134.601    -119.365
  O     -341.586     135.938    -121.159
  H     -342.401     133.903    -119.905
  H     -345.949     136.538    -120.116
  H     -345.056     135.764    -118.829
  H     -345.090     135.047    -120.422

 6  7  8  9  10  11  12  13  14  15  25  28  32  33  34  35 0
 6-311+G(2d,p)
 ****
 36  39  40 0
 6-311+G(2d,p)
 ****
 1  2  3  4  5  16  17  18  19  20  21  22  23  24 0
 3-21G
 ****
 26  27  29  30  31  37  38  41  42  43  44  45  46  47  48 0
 3-21G
 ****


