%nproc=1
%NoSave
%Mem=1900MB
#P OB98/GEN NMR

erre ene a

0 1
  C     -575.591    -680.596    -327.428
  O     -575.056    -680.467    -328.751
  P     -575.600    -679.384    -329.792
  C     -573.296    -678.703    -330.711
  O     -574.480    -678.269    -330.037
  C     -572.023    -678.392    -329.906
  O     -572.050    -679.052    -328.623
  C     -570.731    -678.816    -330.588
  O     -570.350    -677.902    -331.592
  C     -569.779    -678.879    -329.378
  O     -569.284    -677.562    -329.059
  C     -570.699    -679.410    -328.272
  N     -567.961    -683.125    -326.082
  C     -567.838    -681.780    -326.065
  N     -568.596    -680.853    -326.685
  C     -569.601    -681.444    -327.352
  C     -569.872    -682.813    -327.460
  C     -568.977    -683.674    -326.788
  N     -569.113    -685.058    -326.814
  N     -570.963    -683.033    -328.256
  C     -571.388    -681.835    -328.603
  N     -570.596    -680.846    -328.075
  O     -576.944    -678.822    -329.458
  O     -575.668    -680.164    -331.198
  H     -568.772    -677.628    -328.227
  H     -576.367    -679.777    -331.762
  H     -567.003    -681.405    -325.490
  H     -572.246    -681.633    -329.215
  H     -570.487    -678.929    -327.315
  H     -568.901    -679.502    -329.567
  H     -570.829    -679.810    -331.000
  H     -572.023    -677.297    -329.724
  H     -573.245    -678.204    -331.689
  H     -568.421    -685.597    -326.345
  H     -569.851    -685.464    -327.377
  H     -573.380    -679.797    -330.882
  P     -571.221    -677.778    -332.936
  C     -571.828    -675.343    -332.367
  O     -572.329    -676.616    -332.680
  O     -571.754    -679.062    -333.471
  O     -570.225    -677.059    -333.946
  H     -570.452    -677.344    -334.881
  H     -571.551    -675.301    -331.306
  H     -572.610    -674.602    -332.539
  H     -570.963    -675.091    -332.977
  H     -575.079    -681.380    -326.911
  H     -576.634    -680.829    -327.486
  H     -575.460    -679.675    -326.899

 3  4  5  6  7  8  9  10  11  12  22  25  29  30  31  32 0
 6-311+G(2d,p)
 ****
 33  36  37 0
 6-311+G(2d,p)
 ****
 1  2  13  14  15  16  17  18  19  20  21  23  24  26 0
 3-21G
 ****
 27  28  34  35  38  39  40  41  42  43  44  45  46  47  48 0
 3-21G
 ****


