%nproc=1
%NoSave
%Mem=1900MB
#P OB98/GEN NMR

erre ene a

0 1
  C      -71.101     -82.953      -3.330
  O      -72.303     -82.534      -2.714
  H      -70.318     -82.225      -3.100
  H      -71.218     -83.013      -4.415
  H      -70.797     -83.928      -2.936
  P      -73.660     -83.296      -3.111
  C      -75.046     -81.576      -1.769
  O      -74.815     -82.179      -3.042
  C      -75.186     -80.058      -1.900
  O      -73.898     -79.459      -2.146
  C      -76.057     -79.622      -3.068
  O      -77.428     -79.919      -2.908
  C      -75.620     -78.180      -3.282
  O      -76.311     -77.249      -2.454
  C      -74.127     -78.235      -2.873
  N      -73.240     -78.111      -4.023
  C      -72.955     -76.813      -4.431
  O      -73.424     -75.811      -3.890
  N      -72.136     -76.695      -5.521
  C      -71.631     -77.729      -6.254
  O      -70.935     -77.557      -7.249
  C      -71.988     -79.079      -5.791
  C      -72.765     -79.208      -4.712
  O      -73.967     -84.533      -2.322
  O      -73.503     -83.557      -4.681
  H      -77.259     -77.309      -2.686
  H      -74.141     -84.244      -4.992
  H      -71.910     -75.762      -5.825
  H      -71.607     -79.923      -6.351
  H      -73.044     -80.195      -4.351
  H      -73.894     -77.416      -2.181
  H      -75.774     -77.864      -4.316
  H      -75.732     -80.174      -3.958
  H      -75.569     -79.664      -0.952
  H      -74.184     -81.805      -1.133
  H      -75.945     -82.007      -1.315
  P      -78.413     -80.199      -4.135
  C      -80.460     -79.536      -2.677
  O      -79.760     -79.351      -3.901
  O      -78.531     -81.617      -4.592
  O      -77.691     -79.370      -5.316
  H      -77.838     -79.859      -6.149
  H      -81.328     -78.911      -2.665
  H      -79.822     -79.276      -1.858
  H      -80.757     -80.560      -2.587

 6  7  8  9  10  11  12  13  14  15  16  26  31  32  33  34  35 0
 6-311+G(2d,p)
 ****
 36  37 0
 6-311+G(2d,p)
 ****
 1  2  3  4  5  17  18  19  20  21  22  23  24  25 0
 3-21G
 ****
 27  28  29  30  38  39  40  41  42  43  44  45 0
 3-21G
 ****


