%nproc=1
%NoSave
%Mem=1900MB
#P OB98/GEN NMR

erre ene a

0 1
  C       37.273    -741.525    1201.655
  O       36.496    -741.640    1200.445
  P       36.190    -743.033    1199.728
  C       33.666    -742.996    1200.271
  O       34.899    -743.710    1200.400
  C       32.672    -743.394    1201.375
  O       33.334    -743.434    1202.649
  C       31.495    -742.440    1201.547
  O       30.536    -742.595    1200.527
  C       31.033    -742.795    1202.947
  O       30.174    -743.957    1202.909
  C       32.359    -743.126    1203.674
  N       32.800    -742.032    1204.528
  C       33.288    -742.406    1205.802
  O       33.261    -743.575    1206.163
  N       33.779    -741.417    1206.616
  C       33.714    -740.162    1206.241
  N       34.208    -739.241    1207.107
  C       33.134    -739.734    1204.960
  C       32.704    -740.717    1204.163
  O       37.386    -743.951    1199.649
  O       35.687    -742.652    1198.263
  H       30.632    -744.627    1202.358
  H       35.941    -743.352    1197.634
  H       33.062    -738.695    1204.704
  H       32.272    -740.488    1203.188
  H       32.241    -744.036    1204.266
  H       30.456    -741.987    1203.432
  H       31.876    -741.389    1201.553
  H       32.304    -744.407    1201.150
  H       34.612    -739.569    1207.981
  H       33.236    -743.251    1199.288
  H       34.207    -738.250    1206.907
  H       33.866    -741.907    1200.305
  P       30.499    -741.559    1199.288
  C       31.297    -743.324    1197.585
  O       31.557    -742.067    1198.199
  O       30.602    -740.112    1199.661
  O       29.091    -741.869    1198.591
  H       28.748    -741.054    1198.196
  H       31.826    -743.361    1196.629
  H       30.221    -743.458    1197.425
  H       31.669    -744.120    1198.245
  H       37.339    -740.496    1201.940
  H       38.256    -741.912    1201.486
  H       36.800    -742.082    1202.437

 3  4  5  6  7  8  9  10  11  12  13  23  27  28  29  30  32 0
 6-311+G(2d,p)
 ****
 34  35 0
 6-311+G(2d,p)
 ****
 1  2  14  15  16  17  18  19  20  21  22  24  25  26 0
 3-21G
 ****
 31  33  36  37  38  39  40  41  42  43  44  45  46 0
 3-21G
 ****


