%nproc=1
%NoSave
%Mem=1900MB
#P OB98/GEN NMR

erre ene a

0 1
  C     -910.542     295.101    -895.120
  O     -909.308     295.578    -895.680
  P     -909.286     297.115    -896.170
  C     -906.744     297.742    -896.060
  O     -908.040     297.849    -895.440
  C     -905.907     296.717    -895.310
  O     -906.491     295.372    -895.370
  C     -904.503     296.548    -895.910
  O     -903.682     297.643    -895.510
  C     -904.094     295.216    -895.250
  O     -903.677     295.408    -893.900
  C     -905.413     294.433    -895.320
  N     -903.733     289.998    -897.270
  C     -903.437     290.645    -896.140
  N     -903.922     291.817    -895.690
  C     -904.817     292.330    -896.550
  C     -905.223     291.802    -897.780
  C     -904.636     290.557    -898.140
  N     -904.911     289.932    -899.310
  N     -906.155     292.601    -898.400
  C     -906.272     293.653    -897.550
  N     -905.500     293.499    -896.440
  O     -910.567     297.754    -895.430
  O     -909.364     297.263    -897.660
  H     -903.687     294.526    -893.470
  H     -911.271     297.928    -896.100
  H     -902.731     290.135    -895.490
  H     -906.930     294.480    -897.750
  H     -905.566     293.816    -894.410
  H     -903.267     294.723    -895.810
  H     -904.543     296.460    -896.980
  H     -905.858     297.005    -894.250
  H     -906.240     298.703    -896.060
  H     -904.392     289.092    -899.540
  H     -905.522     290.368    -900.000
  H     -906.889     297.437    -897.110
  P     -903.553     298.867    -896.540
  C     -904.946     300.573    -895.210
  O     -904.916     299.723    -896.330
  O     -903.801     298.118    -897.970
  O     -902.287     299.641    -896.460
  H     -904.596     297.533    -897.920
  H     -905.911     301.089    -895.200
  H     -904.125     301.310    -895.280
  H     -904.833     299.978    -894.310
  H     -910.431     294.076    -894.835
  H     -911.321     295.187    -895.849
  H     -910.793     295.686    -894.260

 3  4  5  6  7  8  9  10  11  12  22  25  29  30  31  32 0
 6-311+G(2d,p)
 ****
 33  36  37 0
 6-311+G(2d,p)
 ****
 1  2  13  14  15  16  17  18  19  20  21  23  24  26 0
 3-21G
 ****
 27  28  34  35  38  39  40  41  42  43  44  45  46  47  48 0
 3-21G
 ****


