%nproc=1
%NoSave
%Mem=1900MB
#P OB98/GEN NMR

erre ene a

0 1
  C      -97.941     -20.752      31.849
  O      -99.039     -20.539      32.715
  H      -97.110     -21.156      32.430
  H      -97.634     -19.801      31.407
  H      -98.202     -21.465      31.060
  P     -100.463     -20.264      32.027
  C     -101.263     -19.139      29.828
  O     -100.164     -19.465      30.666
  C     -100.847     -18.102      28.791
  O     -100.358     -16.908      29.439
  C      -99.739     -18.563      27.849
  O     -100.257     -19.331      26.771
  C      -99.207     -17.227      27.362
  O     -100.104     -16.679      26.370
  C      -99.262     -16.377      28.640
  N      -94.468     -14.759      28.972
  C      -95.395     -14.578      27.964
  N      -94.984     -13.873      26.890
  N      -96.616     -15.049      28.004
  C      -96.878     -15.756      29.129
  C      -96.042     -16.008      30.193
  C      -94.703     -15.468      30.145
  O      -93.846     -15.589      31.015
  N      -96.662     -16.763      31.154
  C      -97.865     -16.985      30.662
  N      -98.046     -16.397      29.434
  O     -101.109     -19.154      32.986
  O     -101.349     -21.456      31.901
  H     -100.183     -17.342      25.661
  H     -101.768     -19.584      33.565
  H      -93.539     -14.384      28.888
  H      -98.641     -17.554      31.157
  H      -99.488     -15.325      28.430
  H      -98.227     -17.309      26.891
  H      -94.053     -13.501      26.785
  H      -98.948     -19.101      28.387
  H      -95.650     -13.726      26.140
  H     -101.743     -17.818      28.223
  H     -102.073     -18.734      30.445
  H     -101.613     -20.049      29.329
  P      -99.538     -20.721      26.416
  C      -98.325     -21.422      24.234
  O      -98.501     -20.422      25.226
  O     -100.705     -21.545      25.694
  O      -98.986     -21.466      27.581
  H     -100.981     -22.292      26.258
  H      -97.611     -21.086      23.512
  H      -99.260     -21.612      23.749
  H      -97.972     -22.322      24.693

 6  7  8  9  10  11  12  13  14  15  26  29  33  34 0
 6-311+G(2d,p)
 ****
 36  38  39  40  41 0
 6-311+G(2d,p)
 ****
 1  2  3  4  5  16  17  18  19  20  21  22  23  24  25 0
 3-21G
 ****
 27  28  30  31  32  35  37  42  43  44  45  46  47 0
 3-21G
 ****
 48  49 0
 3-21G
 ****


