%nproc=1
%NoSave
%Mem=1900MB
#P OB98/GEN NMR

erre ene a

0 1
  C      -16.819     -22.849      13.402
  O      -16.377     -21.567      13.010
  H      -17.608     -22.737      14.150
  H      -15.988     -23.397      13.853
  H      -17.215     -23.406      12.550
  P      -15.519     -21.468      11.659
  C      -13.006     -21.671      11.045
  O      -13.978     -21.640      12.079
  C      -11.704     -21.024      11.518
  O      -11.906     -19.581      11.601
  C      -11.226     -21.509      12.897
  O       -9.794     -21.575      12.893
  C      -11.645     -20.375      13.815
  O      -10.875     -20.333      15.011
  C      -11.432     -19.175      12.898
  N      -11.117     -15.455      16.250
  C      -10.176     -16.379      15.845
  N       -8.980     -16.354      16.470
  N      -10.390     -17.262      14.906
  C      -11.622     -17.167      14.349
  C      -12.642     -16.303      14.662
  C      -12.399     -15.340      15.716
  O      -13.199     -14.511      16.134
  N      -13.759     -16.569      13.910
  C      -13.419     -17.604      13.161
  N      -12.132     -18.003      13.393
  O      -15.636     -19.915      11.284
  O      -15.978     -22.346      10.544
  H      -10.854     -21.234      15.393
  H      -16.367     -19.782      10.651
  H      -10.907     -14.807      16.989
  H      -14.066     -18.106      12.458
  H      -10.374     -18.899      12.806
  H      -12.702     -20.483      14.085
  H       -8.729     -15.683      17.180
  H      -11.640     -22.476      13.196
  H       -8.266     -16.999      16.155
  H      -10.931     -21.195      10.759
  H      -13.384     -21.119      10.179
  H      -12.829     -22.710      10.749
  P       -9.107     -23.023      12.899
  C       -8.931     -25.046      14.527
  O       -9.486     -23.764      14.270
  O       -7.553     -22.684      13.084
  O       -9.350     -23.814      11.657
  H       -7.013     -23.332      12.593
  H       -9.279     -25.402      15.474
  H       -7.863     -24.976      14.542
  H       -9.233     -25.726      13.758

 6  7  8  9  10  11  12  13  14  15  26  29  33  34 0
 6-311+G(2d,p)
 ****
 36  38  39  40  41 0
 6-311+G(2d,p)
 ****
 1  2  3  4  5  16  17  18  19  20  21  22  23  24  25 0
 3-21G
 ****
 27  28  30  31  32  35  37  42  43  44  45  46  47 0
 3-21G
 ****
 48  49 0
 3-21G
 ****


