%nproc=1
%NoSave
%Mem=1900MB
#P OB98/GEN NMR

erre ene a

0 1
  C     -896.850    -899.410      55.302
  O     -896.370    -899.810      54.032
  H     -897.910    -899.580      55.376
  H     -896.340    -900.000      56.067
  H     -896.630    -898.340      55.481
  P     -896.850    -898.930      52.773
  C     -894.680    -897.520      52.942
  O     -896.110    -897.520      52.909
  C     -894.150    -896.070      52.952
  O     -894.570    -895.410      51.745
  C     -894.640    -895.270      54.152
  O     -893.590    -894.410      54.626
  C     -895.780    -894.420      53.571
  O     -895.990    -893.240      54.314
  C     -895.240    -894.210      52.162
  N     -897.880    -890.360      50.008
  C     -896.770    -890.380      50.801
  N     -896.140    -891.430      51.350
  C     -896.700    -892.560      50.926
  C     -897.830    -892.740      50.095
  C     -898.420    -891.530      49.650
  N     -899.550    -891.520      48.861
  N     -898.140    -894.090      49.933
  C     -897.170    -894.720      50.622
  N     -896.310    -893.850      51.252
  O     -898.370    -898.580      53.153
  O     -896.790    -899.600      51.441
  H     -896.690    -892.700      53.884
  H     -898.950    -899.340      52.964
  H     -896.400    -889.390      51.063
  H     -897.110    -895.790      50.705
  H     -894.510    -893.360      52.095
  H     -896.690    -895.000      53.558
  H     -895.010    -895.900      54.981
  H     -893.040    -896.110      52.928
  H     -894.300    -898.020      52.051
  H     -899.950    -890.650      48.618
  H     -900.000    -892.380      48.638
  H     -894.340    -898.070      53.818
  P     -892.950    -894.840      56.027
  C     -890.930    -896.170      55.096
  O     -892.130    -896.230      55.851
  O     -894.180    -895.240      56.951
  O     -892.140    -893.700      56.639
  H     -894.130    -894.800      57.781
  H     -890.486    -897.143      55.053
  H     -890.250    -895.488      55.561
  H     -891.149    -895.834      54.104

 6  7  8  9  10  11  12  13  14  15  25  28  32  33  34  35 0
 6-311+G(2d,p)
 ****
 36  39  40 0
 6-311+G(2d,p)
 ****
 1  2  3  4  5  16  17  18  19  20  21  22  23  24 0
 3-21G
 ****
 26  27  29  30  31  37  38  41  42  43  44  45  46  47 0
 3-21G
 ****
 48 0
 3-21G
 ****


