%nproc=1
%NoSave
%Mem=1900MB
#P OB98/GEN NMR

erre ene a

0 1
  C     -603.340     403.982      61.842
  O     -604.155     403.817      62.987
  H     -603.725     404.820      61.257
  H     -603.384     403.082      61.223
  H     -602.306     404.192      62.129
  P     -603.683     402.738      64.075
  C     -603.918     404.388      66.068
  O     -604.351     403.173      65.475
  C     -604.912     404.837      67.139
  O     -606.020     405.522      66.495
  C     -605.487     403.692      67.973
  O     -605.623     404.121      69.333
  C     -606.870     403.468      67.375
  O     -607.778     402.868      68.298
  C     -607.243     404.889      66.925
  N     -608.243     404.866      65.859
  C     -609.578     404.693      66.264
  O     -609.858     404.566      67.463
  N     -610.554     404.619      65.298
  C     -610.223     404.622      64.048
  N     -611.237     404.514      63.144
  C     -608.826     404.732      63.580
  C     -607.895     404.857      64.534
  O     -602.136     403.074      64.290
  O     -603.915     401.310      63.702
  H     -607.505     401.926      68.427
  H     -601.627     402.269      64.509
  H     -608.596     404.706      62.528
  H     -606.851     404.930      64.286
  H     -607.641     405.466      67.775
  H     -606.790     402.807      66.504
  H     -604.876     402.783      67.935
  H     -604.418     405.577      67.792
  H     -612.179     404.421      63.502
  H     -603.857     405.158      65.298
  H     -611.099     404.456      62.149
  H     -602.927     404.241      66.506
  P     -605.889     402.985      70.427
  C     -603.822     403.442      71.950
  O     -605.245     403.471      71.817
  O     -604.925     401.793      69.960
  O     -607.310     402.547      70.508
  H     -605.461     401.059      69.602
  H     -603.548     403.792      72.923
  H     -603.381     404.073      71.207
  H     -603.472     402.439      71.820

 6  7  8  9  10  11  12  13  14  15  16  26  30  31  32  33  35 0
 6-311+G(2d,p)
 ****
 37  38 0
 6-311+G(2d,p)
 ****
 1  2  3  4  5  17  18  19  20  21  22  23  24  25 0
 3-21G
 ****
 27  28  29  34  36  39  40  41  42  43  44  45  46 0
 3-21G
 ****


