%nproc=1
%NoSave
%Mem=1900MB
#P OB98/GEN NMR

erre ene a

0 1
  C     -219.402     245.619     -58.628
  O     -218.254     246.338     -59.093
  P     -218.522     247.818     -59.653
  C     -217.120     247.396     -61.796
  O     -217.313     248.202     -60.641
  C     -215.849     247.795     -62.555
  O     -215.917     249.181     -62.997
  C     -214.563     247.652     -61.728
  O     -213.523     247.247     -62.635
  C     -214.304     249.073     -61.266
  O     -212.945     249.246     -60.848
  C     -214.713     249.833     -62.522
  N     -213.045     254.489     -63.563
  C     -212.507     253.260     -63.884
  N     -211.382     253.269     -64.642
  N     -213.027     252.113     -63.504
  C     -214.169     252.266     -62.791
  C     -214.805     253.427     -62.419
  C     -214.212     254.682     -62.826
  O     -214.648     255.797     -62.569
  N     -215.971     253.159     -61.719
  C     -215.977     251.836     -61.615
  N     -214.946     251.251     -62.295
  O     -218.282     248.745     -58.375
  O     -219.888     248.000     -60.224
  H     -212.783     248.611     -60.120
  H     -219.133     249.003     -57.979
  H     -212.598     255.348     -63.872
  H     -216.722     251.267     -61.089
  H     -213.951     249.773     -63.316
  H     -214.964     249.319     -60.421
  H     -210.963     254.110     -65.008
  H     -214.636     246.934     -60.901
  H     -210.992     252.381     -64.925
  H     -215.779     247.165     -63.457
  H     -217.982     247.494     -62.467
  H     -217.091     246.346     -61.498
  P     -212.689     245.933     -62.289
  C     -210.290     246.897     -62.462
  O     -211.269     246.045     -63.026
  O     -213.450     244.787     -63.118
  O     -212.638     245.596     -60.831
  H     -213.484     243.966     -62.590
  H     -209.298     246.541     -62.761
  H     -210.346     246.916     -61.376
  H     -210.427     247.910     -62.845
  H     -219.101     244.652     -58.281
  H     -220.102     245.508     -59.429
  H     -219.860     246.159     -57.826

 3  4  5  6  7  8  9  10  11  12  23  26  30  31 0
 6-311+G(2d,p)
 ****
 33  35  36  37  38 0
 6-311+G(2d,p)
 ****
 1  2  13  14  15  16  17  18  19  20  21  22  24  25 0
 3-21G
 ****
 27  28  29  32  34  39  40  41  42  43  44  45  46  47  48  49 0
 3-21G
 ****


