%nproc=1
%NoSave
%Mem=1900MB
#P OB98/GEN NMR

erre ene a

0 1
  C       67.310      86.717     380.963
  O       66.199      87.524     380.638
  P       66.274      89.121     380.734
  C       66.187      89.461     378.182
  O       66.952      89.634     379.369
  C       66.126      90.774     377.392
  O       65.580      91.815     378.260
  C       67.511      91.243     376.903
  O       67.578      91.528     375.505
  C       67.812      92.415     377.824
  O       68.778      93.312     377.315
  C       66.410      92.978     378.078
  N       66.368      93.879     379.227
  C       66.952      95.131     379.073
  O       67.484      95.528     378.040
  N       66.966      95.927     380.185
  C       66.571      95.560     381.436
  O       66.704      96.289     382.410
  C       65.999      94.209     381.547
  C       65.902      93.450     380.454
  O       66.906      89.658     381.973
  O       64.749      89.567     380.534
  H       68.878      94.043     377.954
  H       64.349      89.292     379.691
  H       67.387      96.838     380.087
  H       65.686      93.887     382.529
  H       65.484      92.449     380.504
  H       66.032      93.513     377.207
  H       68.215      92.008     378.759
  H       68.265      90.462     377.050
  H       65.440      90.627     376.553
  H       65.174      89.161     378.455
  H       66.618      88.655     377.577
  P       68.773      91.092     374.535
  C       67.763      89.612     372.651
  O       68.410      89.667     373.905
  O       70.140      91.192     375.125
  O       68.624      92.087     373.289
  H       69.498      92.237     372.884
  H       67.161      88.700     372.608
  H       68.516      89.571     371.860
  H       67.112      90.477     372.496
  H       67.053      85.687     380.833
  H       67.590      86.889     381.981
  H       68.130      86.963     380.321

 3  4  5  6  7  8  9  10  11  12  13  23  28  29  30  31  32 0
 6-311+G(2d,p)
 ****
 33  34 0
 6-311+G(2d,p)
 ****
 1  2  14  15  16  17  18  19  20  21  22  24  25  26  27 0
 3-21G
 ****
 35  36  37  38  39  40  41  42  43  44  45 0
 3-21G
 ****


