%nproc=1
%NoSave
%Mem=1900MB
#P OB98/GEN NMR

erre ene a

0 1
  C      296.725     -21.119     -33.816
  O      295.353     -20.781     -33.823
  H      297.147     -20.884     -34.797
  H      296.850     -22.189     -33.631
  H      297.264     -20.546     -33.058
  P      294.526     -20.883     -32.454
  C      292.752     -19.135     -33.123
  O      293.009     -20.493     -32.793
  C      291.248     -18.915     -33.279
  O      290.741     -19.705     -34.379
  C      290.436     -19.332     -32.062
  O      290.539     -18.375     -31.024
  C      289.050     -19.462     -32.673
  O      288.419     -18.177     -32.796
  C      289.374     -20.055     -34.062
  N      289.171     -21.500     -34.125
  C      287.906     -21.932     -34.518
  O      286.978     -21.166     -34.773
  N      287.732     -23.291     -34.580
  C      288.640     -24.231     -34.188
  O      288.403     -25.436     -34.181
  C      289.949     -23.718     -33.758
  C      290.150     -22.398     -33.749
  O      295.117     -20.167     -31.287
  O      294.437     -22.462     -32.186
  H      288.451     -17.769     -31.908
  H      295.056     -22.705     -31.473
  H      286.822     -23.622     -34.848
  H      290.699     -24.435     -33.455
  H      291.107     -21.999     -33.429
  H      288.744     -19.586     -34.830
  H      288.389     -20.086     -32.072
  H      290.760     -20.318     -31.711
  H      291.078     -17.856     -33.520
  H      293.255     -18.899     -34.067
  H      293.159     -18.492     -32.333
  P      289.891     -18.676     -29.592
  C      291.745     -17.309     -28.449
  O      290.340     -17.505     -28.596
  O      290.098     -20.062     -29.075
  O      288.332     -18.383     -29.813
  H      287.821     -19.197     -29.638
  H      291.923     -16.506     -27.764
  H      292.173     -17.069     -29.400
  H      292.193     -18.205     -28.073

 6  7  8  9  10  11  12  13  14  15  16  26  31  32  33  34  35 0
 6-311+G(2d,p)
 ****
 36  37 0
 6-311+G(2d,p)
 ****
 1  2  3  4  5  17  18  19  20  21  22  23  24  25 0
 3-21G
 ****
 27  28  29  30  38  39  40  41  42  43  44  45 0
 3-21G
 ****


