%nproc=1
%NoSave
%Mem=1900MB
#P OB98/GEN NMR

erre ene a

0 1
  C      410.382    -405.579    -775.897
  O      410.817    -406.551    -776.823
  H      411.090    -404.744    -775.905
  H      410.357    -406.009    -774.891
  H      409.393    -405.209    -776.169
  P      409.902    -407.856    -776.982
  C      408.374    -408.654    -775.035
  O      409.703    -408.451    -775.504
  C      408.414    -409.200    -773.611
  O      409.061    -408.237    -772.737
  C      407.038    -409.437    -772.997
  O      406.448    -410.645    -773.450
  C      407.374    -409.451    -771.514
  O      407.843    -410.735    -771.094
  C      408.499    -408.406    -771.411
  N      407.581    -405.716    -767.179
  C      408.142    -406.931    -767.374
  N      408.362    -407.576    -768.541
  C      407.961    -406.816    -769.577
  C      407.384    -405.560    -769.536
  C      407.192    -405.004    -768.255
  N      406.599    -403.777    -768.061
  N      407.073    -405.123    -770.813
  C      407.470    -406.095    -771.602
  N      408.017    -407.137    -770.908
  O      410.885    -408.910    -777.686
  O      408.646    -407.660    -777.765
  H      408.663    -410.904    -771.601
  H      410.695    -408.943    -778.646
  H      408.444    -407.462    -766.469
  H      407.383    -406.091    -772.688
  H      409.310    -408.736    -770.755
  H      406.494    -409.206    -770.916
  H      406.381    -408.577    -773.210
  H      409.015    -410.124    -773.599
  H      407.866    -409.384    -775.680
  H      407.832    -407.700    -775.066
  H      406.433    -403.469    -767.117
  H      406.203    -403.287    -768.847
  P      404.877    -410.836    -773.221
  C      403.423    -410.483    -771.085
  O      404.641    -410.968    -771.648
  O      404.582    -412.308    -773.772
  O      404.019    -409.805    -773.893
  H      403.698    -412.339    -774.196
  H      403.428    -410.648    -770.028
  H      402.596    -411.002    -771.523
  H      403.332    -409.435    -771.282

 6  7  8  9  10  11  12  13  14  15  25  28  32  33  34  35 0
 6-311+G(2d,p)
 ****
 36  37  40 0
 6-311+G(2d,p)
 ****
 1  2  3  4  5  16  17  18  19  20  21  22  23  24 0
 3-21G
 ****
 26  27  29  30  31  38  39 41  42  43  44  45  46  47  48 0
 3-21G
 ****


