%nproc=1
%NoSave
%Mem=1900MB
#P OB98/GEN NMR

erre ene a

0 1
  C     -110.507     -71.680     110.687
  O     -110.556     -71.276     109.335
  H     -111.432     -71.372     111.181
  H     -109.663     -71.206     111.196
  H     -110.417     -72.767     110.751
  P     -109.245     -71.540     108.450
  C     -108.770     -72.303     106.012
  O     -109.746     -72.027     107.008
  C     -109.274     -71.818     104.656
  O     -110.457     -72.561     104.278
  C     -109.693     -70.355     104.638
  O     -108.590     -69.469     104.545
  C     -110.567     -70.322     103.396
  O     -109.788     -70.146     102.204
  C     -111.241     -71.706     103.423
  N     -112.633     -71.622     103.858
  C     -113.550     -71.252     102.877
  O     -113.234     -71.010     101.713
  N     -114.848     -71.131     103.289
  C     -115.299     -71.289     104.566
  O     -116.470     -71.110     104.879
  C     -114.284     -71.662     105.563
  C     -113.015     -71.805     105.171
  O     -108.623     -72.861     109.105
  O     -108.266     -70.414     108.426
  H     -107.830     -72.631     109.621
  H     -109.079     -70.819     102.245
  H     -115.528     -70.867     102.593
  H     -114.607     -71.793     106.588
  H     -112.245     -72.068     105.889
  H     -111.223     -72.160     102.424
  H     -111.277     -69.500     103.441
  H     -110.311     -70.126     105.515
  H     -108.494     -72.005     103.907
  H     -108.593     -73.382     105.959
  H     -107.833     -71.807     106.284
  P     -108.888     -67.893     104.619
  C     -107.332     -65.797     104.946
  O     -107.497     -67.204     105.017
  O     -109.773     -67.824     105.950
  O     -109.547     -67.364     103.392
  H     -109.563     -68.551     106.562
  H     -106.339     -65.538     105.251
  H     -108.039     -65.322     105.593
  H     -107.493     -65.469     103.940

 6  7  8  9  10  11  12  13  14  15  16  27  31  32  33  34  35 0
 6-311+G(2d,p)
 ****
 36  37 0
 6-311+G(2d,p)
 ****
 1  2  3  4  5  17  18  19  20  21  22  23  24  25 0
 3-21G
 ****
 26  28  29  30  38  39  40  41  42  43  44  45 0
 3-21G
 ****


