%nproc=1
%NoSave
%Mem=1900MB
#P OB98/GEN NMR

erre ene a

0 1
  C      -71.826      97.857     -39.236
  O      -72.113      98.923     -38.354
  H      -71.836      98.238     -40.261
  H      -72.591      97.083     -39.143
  H      -70.840      97.435     -39.026
  P      -71.947      98.624     -36.787
  C      -74.451      99.216     -36.444
  O      -73.412      98.272     -36.232
  C      -75.754      98.498     -36.781
  O      -75.581      97.659     -37.944
  C      -76.272      97.586     -35.673
  O      -76.994      98.312     -34.687
  C      -77.192      96.676     -36.468
  O      -78.426      97.364     -36.760
  C      -76.387      96.462     -37.756
  N      -76.096      91.510     -36.712
  C      -77.167      92.378     -36.609
  N      -78.324      91.853     -36.151
  N      -77.109      93.647     -36.918
  C      -75.886      94.036     -37.350
  C      -74.751      93.270     -37.499
  C      -74.831      91.868     -37.160
  O      -73.920      91.051     -37.256
  N      -73.703      94.015     -37.973
  C      -74.196      95.231     -38.093
  N      -75.515      95.299     -37.721
  O      -71.656     100.072     -36.162
  O      -70.873      97.654     -36.430
  H      -78.941      97.379     -35.933
  H      -71.025      99.974     -35.423
  H      -76.192      90.545     -36.450
  H      -73.644      96.091     -38.444
  H      -77.029      96.355     -38.637
  H      -77.454      95.766     -35.927
  H      -78.423      90.897     -35.848
  H      -75.464      96.992     -35.230
  H      -79.131      92.462     -36.098
  H      -76.503      99.259     -37.035
  H      -74.176      99.873     -37.275
  H      -74.575      99.818     -35.539
  P      -76.353      98.408     -33.216
  C      -78.661      97.659     -32.291
  O      -77.253      97.455     -32.291
  O      -76.763      99.880     -32.740
  O      -74.881      98.186     -33.154
  H      -76.148     100.190     -32.048
  H      -79.124      96.954     -31.632
  H      -79.041      97.523     -33.282
  H      -78.877      98.653     -31.959

 6  7  8  9  10  11  12  13  14  15  26  29  33  34 0
 6-311+G(2d,p)
 ****
 36  38  39  40  41 0
 6-311+G(2d,p)
 ****
 1  2  3  4  5  16  17  18  19  20  21  22  23  24  25 0
 3-21G
 ****
 27  28  30  31  32  35  37  42  43  44  45  46  47 0
 3-21G
 ****
 48  49 0
 3-21G
 ****


