%nproc=1
%NoSave
%Mem=1900MB
#P OB98/GEN NMR

erre ene a

0 1
  C     -108.283     274.417      45.947
  O     -107.754     274.979      44.756
  P     -108.080     276.522      44.446
  C     -109.813     275.652      42.702
  O     -109.530     276.557      43.758
  C     -110.455     276.388      41.524
  O     -110.844     275.410      40.524
  C     -111.706     277.199      41.876
  O     -111.732     278.335      41.002
  C     -112.841     276.255      41.518
  O     -114.074     276.935      41.302
  C     -112.260     275.576      40.281
  N     -116.647     273.074      39.975
  C     -116.397     274.380      40.358
  N     -117.480     275.138      40.641
  N     -115.199     274.894      40.453
  C     -114.217     274.021      40.123
  C     -114.334     272.696      39.767
  C     -115.666     272.152      39.630
  O     -115.938     271.028      39.213
  N     -113.108     272.111      39.595
  C     -112.254     273.101      39.765
  N     -112.879     274.287      40.041
  O     -107.082     276.859      43.242
  O     -107.927     277.463      45.600
  H     -114.738     276.268      41.025
  H     -106.252     277.250      43.572
  H     -117.592     272.740      39.903
  H     -111.181     273.021      39.699
  H     -112.382     276.179      39.372
  H     -112.988     275.533      42.332
  H     -118.432     274.816      40.561
  H     -111.740     277.524      42.921
  H     -117.325     276.106      40.892
  H     -109.696     277.037      41.066
  H     -110.514     274.895      43.060
  H     -108.891     275.152      42.391
  P     -111.616     279.794      41.660
  C     -114.078     280.585      41.500
  O     -113.026     280.135      42.332
  O     -111.574     280.759      40.381
  O     -110.411     279.999      42.516
  H     -111.029     281.542      40.578
  H     -115.031     280.392      41.998
  H     -114.076     280.070      40.532
  H     -113.978     281.663      41.334
  H     -107.986     273.392      46.020
  H     -109.351     274.479      45.927
  H     -107.910     274.957      46.792

 3  4  5  6  7  8  9  10  11  12  23  26  30  31 0
 6-311+G(2d,p)
 ****
 33  35  36  37  38 0
 6-311+G(2d,p)
 ****
 1  2  13  14  15  16  17  18  19  20  21  22  24  25 0
 3-21G
 ****
 27  28  29  32  34  39  40  41  42  43  44  45  46  47  48  49 0
 3-21G
 ****


