%nproc=1
%NoSave
%Mem=1900MB
#P OB98/GEN NMR

erre ene a

0 1
  C      674.778    -899.267    -895.750
  O      674.792    -897.997    -895.120
  P      675.655    -897.727    -893.780
  C      677.477    -895.907    -894.090
  O      677.149    -897.307    -894.200
  C      678.117    -895.377    -895.410
  O      677.187    -895.497    -896.530
  C      678.533    -893.907    -895.400
  O      679.727    -893.747    -894.620
  C      678.674    -893.607    -896.860
  O      679.947    -894.057    -897.370
  C      677.533    -894.457    -897.480
  N      676.356    -893.657    -897.810
  C      676.348    -893.067    -899.080
  O      677.317    -893.197    -899.820
  N      675.260    -892.347    -899.440
  C      674.279    -892.157    -898.620
  N      673.204    -891.407    -899.050
  C      674.260    -892.707    -897.250
  C      675.337    -893.437    -896.890
  O      675.616    -898.827    -892.790
  O      675.033    -896.377    -893.160
  H      679.988    -893.837    -898.320
  H      675.149    -896.387    -892.210
  H      673.459    -892.487    -896.520
  H      675.423    -893.857    -895.920
  H      677.881    -894.967    -898.380
  H      678.589    -892.557    -897.070
  H      677.729    -893.317    -894.950
  H      678.983    -896.027    -895.630
  H      673.232    -891.067    -900.000
  H      678.191    -895.747    -893.280
  H      672.397    -891.217    -898.480
  H      676.561    -895.337    -893.900
  P      679.655    -893.417    -893.040
  C      681.299    -895.157    -892.170
  O      679.931    -894.767    -892.250
  O      678.415    -892.667    -892.610
  O      680.963    -892.547    -892.790
  H      680.789    -891.917    -892.070
  H      681.428    -895.827    -891.280
  H      681.971    -894.277    -892.010
  H      681.622    -895.677    -893.080
  H      674.149    -899.229    -896.615
  H      674.402    -900.000    -895.067
  H      675.773    -899.530    -896.044

 3  4  5  6  7  8  9  10  11  12  13  23  27  28  29  30  32 0
 6-311+G(2d,p)
 ****
 34  35 0
 6-311+G(2d,p)
 ****
 1  2  14  15  16  17  18  19  20  21  22  24  25  26 0
 3-21G
 ****
 31  33  36  37  38  39  40  41  42  43  44  45  46 0
 3-21G
 ****


