%nproc=1
%NoSave
%Mem=1900MB
#P OB98/GEN NMR

erre ene a

0 1
  C      417.886     -73.772    -550.495
  O      418.260     -72.856    -549.491
  P      418.541     -71.309    -549.777
  C      421.029     -70.829    -549.202
  O      420.075     -71.148    -550.214
  C      421.308     -72.006    -548.253
  O      421.810     -73.129    -549.011
  C      422.412     -71.626    -547.263
  O      422.099     -70.905    -546.086
  C      423.193     -72.918    -547.023
  O      422.802     -73.586    -545.827
  C      422.850     -73.765    -548.253
  N      427.297     -76.132    -548.831
  C      426.300     -76.366    -547.899
  N      426.619     -77.206    -546.893
  N      425.118     -75.806    -547.945
  C      424.985     -74.920    -548.970
  C      425.890     -74.617    -549.951
  C      427.173     -75.272    -549.906
  O      428.114     -75.031    -550.661
  N      425.440     -73.615    -550.769
  C      424.269     -73.281    -550.260
  N      423.974     -74.018    -549.133
  O      417.965     -70.331    -548.798
  O      417.762     -71.101    -551.179
  H      423.101     -73.059    -545.067
  H      417.404     -70.196    -551.178
  H      428.215     -76.534    -548.691
  H      423.628     -72.493    -550.630
  H      422.458     -74.746    -547.949
  H      424.265     -72.707    -546.923
  H      427.560     -77.534    -546.740
  H      423.110     -70.972    -547.794
  H      425.980     -77.273    -546.107
  H      420.389     -72.356    -547.778
  H      420.646     -69.968    -548.649
  H      421.970     -70.517    -549.670
  P      423.076     -69.932    -545.282
  C      423.453     -70.601    -542.835
  O      423.857     -70.794    -544.183
  O      422.091     -69.027    -544.390
  O      423.944     -69.063    -546.130
  H      422.542     -68.196    -544.141
  H      424.230     -70.986    -542.174
  H      422.522     -71.143    -542.656
  H      423.300     -69.535    -542.625
  H      417.755     -74.742    -550.062
  H      418.651     -73.815    -551.241
  H      416.968     -73.454    -550.944

 3  4  5  6  7  8  9  10  11  12  23  26  30  31 0
 6-311+G(2d,p)
 ****
 33  35  36  37  38 0
 6-311+G(2d,p)
 ****
 1  2  13  14  15  16  17  18  19  20  21  22  24  25 0
 3-21G
 ****
 27  28  29  32  34  39  40  41  42  43  44  45  46  47  48  49 0
 3-21G
 ****


