%nproc=1
%NoSave
%Mem=1900MB
#P OB98/GEN NMR

erre ene a

0 1
  C      -12.250     130.823     170.750
  O      -12.152     129.916     171.854
  P      -11.796     130.491     173.307
  C      -14.151     131.345     173.916
  O      -13.109     130.433     174.229
  C      -15.467     130.934     174.597
  O      -15.944     129.684     174.035
  C      -15.318     130.744     176.116
  O      -16.301     131.457     176.870
  C      -15.323     129.232     176.287
  O      -15.720     128.819     177.586
  C      -16.194     128.761     175.115
  N      -15.907     127.373     174.738
  C      -15.888     126.439     175.769
  O      -16.018     126.741     176.955
  N      -15.640     125.146     175.397
  C      -15.346     124.717     174.139
  O      -15.087     123.549     173.866
  C      -15.317     125.758     173.100
  C      -15.598     127.020     173.445
  O      -11.062     131.792     173.329
  O      -10.886     129.323     173.937
  H      -15.133     129.256     178.238
  H      -10.169     129.742     174.452
  H      -15.641     124.453     176.129
  H      -15.065     125.458     172.092
  H      -15.571     127.807     172.700
  H      -17.256     128.815     175.371
  H      -14.300     128.863     176.131
  H      -14.366     131.146     176.480
  H      -16.204     131.714     174.381
  H      -14.309     131.365     172.836
  H      -13.845     132.358     174.197
  P      -16.121     132.957     177.399
  C      -17.134     134.170     175.345
  O      -17.251     133.867     176.721
  O      -14.736     133.513     177.326
  O      -16.599     132.858     178.931
  H      -16.007     133.405     179.486
  H      -17.733     135.061     175.130
  H      -17.524     133.336     174.752
  H      -16.094     134.364     175.058
  H      -12.492     130.278     169.861
  H      -11.314     131.325     170.617
  H      -13.016     131.543     170.947

 3  4  5  6  7  8  9  10  11  12  13  23  28  29  30  31  32 0
 6-311+G(2d,p)
 ****
 33  34 0
 6-311+G(2d,p)
 ****
 1  2  14  15  16  17  18  19  20  21  22  24  25  26  27 0
 3-21G
 ****
 35  36  37  38  39  40  41  42  43  44  45 0
 3-21G
 ****


