%nproc=1
%NoSave
%Mem=1900MB
#P OB98/GEN NMR

erre ene a

0 1
  C       -2.957    -891.040     525.799
  O       -2.614    -892.030     524.841
  H       -3.084    -890.090     525.280
  H       -2.154    -890.940     526.536
  H       -3.893    -891.290     526.300
  P       -2.468    -893.550     525.321
  C        0.103    -893.630     525.154
  O       -1.023    -893.680     526.021
  C        1.344    -893.180     525.908
  O        1.619    -894.150     526.962
  C        2.595    -893.070     525.035
  O        3.367    -891.950     525.468
  C        3.356    -894.350     525.332
  O        4.761    -894.220     525.123
  C        2.978    -894.600     526.797
  N        6.076    -898.080     528.743
  C        6.251    -896.710     528.609
  N        7.420    -896.200     529.032
  N        5.337    -895.930     528.106
  C        4.200    -896.560     527.734
  C        3.920    -897.910     527.820
  C        4.943    -898.790     528.373
  O        4.862    -900.000     528.517
  N        2.672    -898.190     527.320
  C        2.201    -897.020     526.927
  N        3.101    -896.010     527.153
  O       -2.743    -894.580     524.276
  O       -3.486    -893.670     526.553
  H        4.888    -893.980     524.177
  H       -4.318    -894.100     526.278
  H        6.815    -898.650     529.128
  H        1.238    -896.850     526.478
  H        3.624    -894.040     527.494
  H        2.982    -895.170     524.693
  H        8.157    -896.750     529.446
  H        2.360    -892.980     523.965
  H        7.559    -895.200     528.960
  H        1.123    -892.230     526.404
  H       -0.118    -892.920     524.344
  H        0.257    -894.630     524.711
  P        3.231    -890.570     524.662
  C        5.420    -890.680     523.329
  O        4.000    -890.720     523.268
  O        3.550    -889.320     525.446
  O        1.675    -890.570     524.209
  H        1.363    -889.650     524.151
  H        5.823    -890.789     522.344
  H        5.773    -891.477     523.949
  H        5.733    -889.743     523.740

 6  7  8  9  10  11  12  13  14  15  26  29  33  34 0
 6-311+G(2d,p)
 ****
 36  38  39  40  41 0
 6-311+G(2d,p)
 ****
 1  2  3  4  5  16  17  18  19  20  21  22  23  24  25 0
 3-21G
 ****
 27  28  30  31  32  35  37  42  43  44  45  46  47 0
 3-21G
 ****
 48  49 0
 3-21G
 ****


