%nproc=1
%NoSave
%Mem=1900MB
#P OB98/GEN NMR

erre ene a

0 1
  C      -25.633    -121.054     -44.480
  O      -25.460    -119.980     -43.546
  P      -25.230    -118.454     -43.986
  C      -23.082    -117.521     -42.883
  O      -24.490    -117.693     -42.780
  C      -22.378    -118.034     -41.624
  O      -22.278    -119.478     -41.658
  C      -20.942    -117.567     -41.445
  O      -20.860    -116.208     -41.057
  C      -20.436    -118.553     -40.394
  O      -20.777    -118.123     -39.067
  C      -21.213    -119.836     -40.747
  N      -20.368    -120.874     -41.312
  C      -19.560    -121.581     -40.418
  O      -19.522    -121.266     -39.229
  N      -18.803    -122.620     -40.899
  C      -18.772    -122.860     -42.173
  N      -18.018    -123.913     -42.589
  C      -19.503    -122.049     -43.165
  C      -20.276    -121.085     -42.670
  O      -26.469    -117.767     -44.459
  O      -24.124    -118.509     -45.141
  H      -24.225    -117.736     -45.727
  H      -20.516    -118.845     -38.462
  H      -19.417    -122.257     -44.221
  H      -20.860    -120.450     -43.328
  H      -21.717    -120.228     -39.855
  H      -19.348    -118.667     -40.426
  H      -20.392    -117.721     -42.382
  H      -22.985    -117.747     -40.754
  H      -17.538    -124.455     -41.883
  H      -22.871    -116.451     -42.994
  H      -17.944    -124.199     -43.555
  H      -22.719    -118.041     -43.775
  P      -19.978    -115.240     -41.982
  C      -18.112    -114.736     -40.249
  O      -19.186    -114.233     -41.020
  O      -21.066    -114.308     -42.700
  O      -19.127    -115.949     -42.985
  H      -20.804    -114.150     -43.624
  H      -17.409    -113.921     -40.057
  H      -17.587    -115.544     -40.766
  H      -18.496    -115.103     -39.294
  H      -25.769    -121.972     -43.947
  H      -24.766    -121.128     -45.103
  H      -26.493    -120.863     -45.087

 3  4  5  6  7  8  9  10  11  12  13  24  27  28  29  30  32 0
 6-311+G(2d,p)
 ****
 34  35 0
 6-311+G(2d,p)
 ****
 1  2  14  15  16  17  18  19  20  21  22  23  25  26 0
 3-21G
 ****
 31  33  36  37  38  39  40  41  42  43  44  45  46 0
 3-21G
 ****


