%nproc=1
%NoSave
%Mem=1900MB
#P OB98/GEN NMR

erre ene a

0 1
  C     1466.846     122.165    -632.833
  O     1467.251     120.921    -633.396
  P     1466.547     119.588    -632.839
  C     1468.153     118.269    -634.411
  O     1467.594     118.387    -633.111
  C     1469.645     117.972    -634.310
  O     1470.357     119.109    -633.775
  C     1470.003     116.820    -633.377
  O     1469.835     115.554    -633.995
  C     1471.474     117.097    -633.115
  O     1472.280     116.622    -634.219
  C     1471.519     118.625    -633.058
  N     1474.264     119.476    -628.885
  C     1474.676     119.127    -630.168
  N     1476.000     118.924    -630.346
  N     1473.867     118.998    -631.178
  C     1472.571     119.236    -630.858
  C     1472.044     119.595    -629.634
  C     1472.948     119.722    -628.520
  O     1472.639     119.977    -627.354
  N     1470.670     119.749    -629.701
  C     1470.368     119.495    -630.966
  N     1471.474     119.136    -631.692
  O     1465.388     119.301    -633.893
  O     1466.032     119.696    -631.435
  H     1471.983     115.706    -634.419
  H     1464.738     118.679    -633.520
  H     1474.944     119.553    -628.129
  H     1469.372     119.537    -631.374
  H     1472.406     119.035    -633.535
  H     1471.859     116.597    -632.209
  H     1476.662     118.946    -629.580
  H     1469.438     116.886    -632.434
  H     1476.316     118.591    -631.237
  H     1470.037     117.774    -635.326
  H     1467.993     119.199    -634.967
  H     1467.644     117.451    -634.948
  P     1469.172     114.404    -633.084
  C     1471.088     112.810    -633.838
  O     1470.375     113.384    -632.764
  O     1468.258     113.603    -634.137
  O     1468.388     114.899    -631.906
  H     1467.514     113.167    -633.675
  H     1472.014     112.368    -633.458
  H     1471.350     113.567    -634.581
  H     1470.498     112.034    -634.310
  H     1467.393     122.960    -633.295
  H     1467.042     122.161    -631.781
  H     1465.799     122.308    -633.000

 3  4  5  6  7  8  9  10  11  12  23  26  30  31 0
 6-311+G(2d,p)
 ****
 33  35  36  37  38 0
 6-311+G(2d,p)
 ****
 1  2  13  14  15  16  17  18  19  20  21  22  24  25 0
 3-21G
 ****
 27  28  29  32  34  39  40  41  42  43  44  45  46  47  48  49 0
 3-21G
 ****


