%nproc=1
%NoSave
%Mem=1900MB
#P OB98/GEN NMR

erre ene a

0 1
  C       47.002    -176.356    -129.001
  O       45.694    -176.676    -128.559
  P       44.900    -177.837    -129.325
  C       43.649    -178.096    -131.589
  O       44.458    -177.270    -130.762
  C       44.019    -177.925    -133.062
  O       45.422    -178.245    -133.252
  C       43.215    -178.825    -134.005
  O       43.004    -178.139    -135.250
  C       44.155    -179.983    -134.280
  O       43.838    -180.636    -135.507
  C       45.503    -179.259    -134.274
  N       48.151    -183.171    -136.074
  C       47.259    -182.342    -136.726
  N       46.976    -182.653    -138.008
  N       46.705    -181.296    -136.173
  C       47.078    -181.110    -134.882
  C       47.965    -181.854    -134.135
  C       48.563    -183.015    -134.755
  O       49.336    -183.808    -134.225
  N       48.118    -181.335    -132.875
  C       47.293    -180.307    -132.840
  N       46.617    -180.150    -134.022
  O       43.519    -177.921    -128.516
  O       45.589    -179.158    -129.343
  H       42.918    -180.952    -135.427
  H       43.517    -178.718    -127.952
  H       48.543    -183.972    -136.539
  H       47.134    -179.661    -131.985
  H       45.689    -178.751    -135.228
  H       44.092    -180.717    -133.470
  H       47.317    -183.483    -138.471
  H       42.247    -179.153    -133.609
  H       46.292    -182.088    -138.495
  H       43.893    -176.869    -133.334
  H       42.602    -177.825    -131.448
  H       43.771    -179.143    -131.288
  P       41.531    -178.259    -135.879
  C       40.173    -180.250    -136.870
  O       41.435    -179.738    -136.488
  O       41.604    -177.320    -137.174
  O       40.433    -177.864    -134.950
  H       40.715    -176.992    -137.405
  H       40.181    -180.434    -137.948
  H       39.357    -179.561    -136.635
  H       40.000    -181.193    -136.348
  H       47.400    -175.568    -128.396
  H       46.966    -176.039    -130.022
  H       47.628    -177.220    -128.918

 3  4  5  6  7  8  9  10  11  12  23  26  30  31 0
 6-311+G(2d,p)
 ****
 33  35  36  37  38 0
 6-311+G(2d,p)
 ****
 1  2  13  14  15  16  17  18  19  20  21  22  24  25 0
 3-21G
 ****
 27  28  29  32  34  39  40  41  42  43  44  45  46  47  48  49 0
 3-21G
 ****


