%nproc=1
%NoSave
%Mem=1900MB
#P OB98/GEN NMR

erre ene a

0 1
  C       72.276     171.927     -59.309
  O       72.058     171.786     -57.918
  P       71.181     172.860     -57.103
  C       70.298     173.017     -54.689
  O       71.055     172.251     -55.623
  C       70.227     172.293     -53.343
  O       69.390     171.122     -53.499
  C       71.561     171.775     -52.801
  O       72.328     172.732     -52.085
  C       71.066     170.697     -51.833
  O       70.621     171.319     -50.613
  C       69.880     170.095     -52.592
  N       69.708     164.980     -52.716
  C       69.218     165.882     -51.829
  N       69.330     167.224     -51.855
  C       69.978     167.626     -52.963
  C       70.528     166.829     -53.962
  C       70.366     165.441     -53.805
  N       70.845     164.521     -54.727
  N       71.136     167.608     -54.927
  C       70.948     168.847     -54.532
  N       70.247     168.917     -53.354
  O       69.895     173.233     -57.761
  O       72.164     174.103     -56.898
  H       70.229     170.615     -50.058
  H       71.646     174.897     -56.653
  H       68.684     165.466     -50.983
  H       71.296     169.723     -55.049
  H       69.052     169.826     -51.926
  H       71.848     169.977     -51.557
  H       72.158     171.295     -53.593
  H       69.747     172.964     -52.615
  H       69.280     173.134     -55.085
  H       70.575     163.561     -54.600
  H       71.190     164.871     -55.611
  H       70.744     174.012     -54.587
  P       73.930     172.539     -52.083
  C       75.915     174.029     -52.933
  O       74.527     173.891     -52.695
  O       74.402     171.278     -52.722
  O       74.297     172.656     -50.527
  H       74.154     173.538     -50.130
  H       76.088     174.945     -53.501
  H       76.298     173.185     -53.510
  H       76.447     174.100     -51.979
  H       72.879     171.116     -59.659
  H       72.778     172.853     -59.499
  H       71.336     171.919     -59.820

 3  4  5  6  7  8  9  10  11  12  22  25  29  30  31  32 0
 6-311+G(2d,p)
 ****
 33  36  37 0
 6-311+G(2d,p)
 ****
 1  2  13  14  15  16  17  18  19  20  21  23  24  26 0
 3-21G
 ****
 27  28  34  35  38  39  40  41  42  43  44  45  46  47  48 0
 3-21G
 ****


