%nproc=1
%NoSave
%Mem=1900MB
#P OB98/GEN NMR

erre ene a

0 1
  C       56.462    -152.013    -403.895
  O       56.806    -152.031    -402.523
  H       56.974    -152.839    -404.395
  H       56.778    -151.075    -404.359
  H       55.383    -152.146    -404.019
  P       56.214    -150.885    -401.573
  C       58.531    -149.748    -401.711
  O       57.122    -149.586    -401.823
  C       59.134    -148.622    -400.872
  O       58.866    -147.342    -401.476
  C       58.589    -148.548    -399.445
  O       59.242    -149.490    -398.610
  C       58.940    -147.112    -399.091
  O       60.347    -147.019    -398.787
  C       58.642    -146.378    -400.412
  N       55.159    -143.245    -398.455
  C       56.401    -143.601    -397.970
  N       56.755    -143.069    -396.779
  N       57.219    -144.412    -398.588
  C       56.707    -144.921    -399.731
  C       55.483    -144.658    -400.309
  C       54.612    -143.701    -399.645
  O       53.516    -143.341    -400.055
  N       55.269    -145.428    -401.421
  C       56.387    -146.120    -401.551
  N       57.288    -145.854    -400.545
  O       56.055    -151.247    -400.127
  O       54.819    -150.492    -402.252
  H       60.824    -147.505    -399.484
  H       54.085    -151.012    -401.876
  H       54.568    -142.621    -397.928
  H       56.596    -146.819    -402.351
  H       59.323    -145.537    -400.583
  H       58.396    -146.745    -398.221
  H       56.113    -142.565    -396.186
  H       57.499    -148.662    -399.422
  H       57.638    -143.369    -396.377
  H       60.222    -148.750    -400.868
  H       58.948    -149.729    -402.724
  H       58.770    -150.713    -401.255
  P       58.486    -150.174    -397.367
  C       59.882    -148.761    -395.708
  O       58.588    -149.111    -396.168
  O       58.962    -151.543    -397.021
  O       56.940    -150.095    -397.747
  H       56.639    -150.850    -398.318
  H       59.798    -148.049    -394.913
  H       60.443    -148.333    -396.512
  H       60.383    -149.637    -395.351

 6  7  8  9  10  11  12  13  14  15  26  29  33  34 0
 6-311+G(2d,p)
 ****
 36  38  39  40  41 0
 6-311+G(2d,p)
 ****
 1  2  3  4  5  16  17  18  19  20  21  22  23  24  25 0
 3-21G
 ****
 27  28  30  31  32  35  37  42  43  44  45  46  47 0
 3-21G
 ****
 48  49 0
 3-21G
 ****


