%nproc=1
%NoSave
%Mem=1900MB
#P OB98/GEN NMR

erre ene a

0 1
  C     -225.701     422.685    -370.716
  O     -227.113     422.654    -370.785
  H     -225.348     423.720    -370.662
  H     -225.381     422.158    -369.814
  H     -225.267     422.188    -371.587
  P     -227.792     423.370    -372.049
  C     -227.666     421.165    -373.419
  O     -227.308     422.538    -373.334
  C     -227.797     420.757    -374.884
  O     -228.942     421.405    -375.480
  C     -226.603     421.147    -375.750
  O     -225.530     420.228    -375.628
  C     -227.229     421.079    -377.132
  O     -227.348     419.705    -377.546
  C     -228.622     421.678    -376.874
  N     -228.731     425.337    -380.448
  C     -228.642     423.992    -380.535
  N     -228.610     423.089    -379.533
  C     -228.690     423.698    -378.341
  C     -228.781     425.056    -378.094
  C     -228.807     425.898    -379.218
  N     -228.885     427.273    -379.132
  N     -228.805     425.306    -376.735
  C     -228.764     424.115    -376.174
  N     -228.685     423.110    -377.105
  O     -226.984     424.746    -372.182
  O     -229.267     423.580    -371.960
  H     -227.817     419.711    -378.404
  H     -227.506     425.391    -372.694
  H     -228.581     423.591    -381.545
  H     -228.792     423.926    -375.108
  H     -229.401     421.211    -377.487
  H     -226.644     421.596    -377.892
  H     -226.279     422.171    -375.552
  H     -227.968     419.673    -374.918
  H     -228.626     421.009    -372.913
  H     -228.712     427.787    -379.981
  H     -228.789     427.703    -378.223
  H     -226.898     420.561    -372.922
  P     -224.087     420.703    -376.150
  C     -223.167     422.096    -374.153
  O     -223.805     422.108    -375.428
  O     -224.368     421.114    -377.667
  O     -223.010     419.676    -376.025
  H     -223.562     421.026    -378.207
  H     -223.049     423.100    -373.804
  H     -222.206     421.633    -374.239
  H     -223.767     421.545    -373.459

 6  7  8  9  10  11  12  13  14  15  25  28  32  33  34  35 0
 6-311+G(2d,p)
 ****
 36  39  40 0
 6-311+G(2d,p)
 ****
 1  2  3  4  5  16  17  18  19  20  21  22  23  24 0
 3-21G
 ****
 26  27  29  30  31  37  38  41  42  43  44  45  46  47 0
 3-21G
 ****
 48 0
 3-21G
 ****


