%nproc=1
%NoSave
%Mem=1900MB
#P OB98/GEN NMR

erre ene a

0 1
  C      392.835    -562.891    -565.427
  O      393.659    -561.762    -565.747
  P      394.883    -561.949    -566.778
  C      393.468    -560.982    -568.755
  O      394.290    -562.031    -568.265
  C      393.940    -560.538    -570.143
  O      395.184    -559.798    -570.039
  C      394.246    -561.685    -571.094
  O      393.056    -562.260    -571.627
  C      395.102    -560.993    -572.142
  O      394.281    -560.306    -573.112
  C      395.892    -559.973    -571.288
  N      397.271    -560.386    -571.063
  C      398.252    -559.670    -571.733
  O      397.997    -558.761    -572.527
  N      399.549    -560.048    -571.487
  C      399.945    -561.097    -570.706
  O      401.119    -561.396    -570.540
  C      398.856    -561.876    -570.086
  C      397.596    -561.492    -570.294
  O      395.313    -563.475    -566.502
  O      396.039    -561.027    -566.580
  H      393.800    -560.998    -573.607
  H      396.261    -563.584    -566.713
  H      400.277    -559.518    -571.945
  H      399.132    -562.726    -569.477
  H      396.782    -562.061    -569.846
  H      395.897    -558.994    -571.775
  H      395.736    -561.690    -572.700
  H      394.850    -562.449    -570.586
  H      393.183    -559.872    -570.564
  H      393.529    -560.126    -568.069
  H      392.428    -561.327    -568.792
  P      392.493    -563.564    -570.883
  C      390.727    -562.231    -569.480
  O      391.891    -563.039    -569.492
  O      393.858    -564.310    -570.495
  O      391.571    -564.368    -571.735
  H      394.576    -563.680    -570.292
  H      390.046    -562.506    -570.285
  H      391.014    -561.182    -569.586
  H      390.223    -562.378    -568.526
  H      392.076    -562.594    -564.734
  H      393.437    -563.659    -564.989
  H      392.377    -563.263    -566.320

 3  4  5  6  7  8  9  10  11  12  13  23  28  29  30  31  32 0
 6-311+G(2d,p)
 ****
 33  34 0
 6-311+G(2d,p)
 ****
 1  2  14  15  16  17  18  19  20  21  22  24  25  26 0
 3-21G
 ****
 27  35  36  37  38  39  40  41  42  43  44  45 0
 3-21G
 ****


