%nproc=1
%NoSave
%Mem=1900MB
#P OB98/GEN NMR

erre ene a

0 1
  C      -72.260     280.533     -68.505
  O      -71.194     280.871     -67.634
  P      -71.119     282.382     -67.104
  C      -68.709     282.861     -67.977
  O      -70.093     283.168     -68.052
  C      -67.932     283.735     -68.961
  O      -68.495     283.630     -70.286
  C      -67.971     285.220     -68.618
  O      -67.062     285.539     -67.576
  C      -67.611     285.855     -69.954
  O      -66.187     285.881     -70.144
  C      -68.276     284.887     -70.957
  N      -69.514     285.426     -71.516
  C      -69.469     285.780     -72.862
  O      -68.452     285.670     -73.549
  N      -70.621     286.294     -73.385
  C      -71.775     286.544     -72.694
  O      -72.760     287.062     -73.207
  C      -71.753     286.178     -71.267
  C      -70.641     285.654     -70.751
  O      -70.334     282.260     -65.714
  O      -72.444     283.047     -66.938
  H      -65.857     284.998     -69.886
  H      -70.687     282.913     -65.076
  H      -70.620     286.531     -74.362
  H      -72.651     286.363     -70.691
  H      -70.599     285.393     -69.700
  H      -67.589     284.672     -71.785
  H      -67.960     286.888     -70.030
  H      -68.993     285.516     -68.348
  H      -66.894     283.379     -69.000
  H      -68.555     281.806     -68.222
  H      -68.361     283.032     -66.953
  P      -67.284     286.939     -66.820
  C      -64.886     287.857     -67.299
  O      -66.279     287.959     -67.528
  O      -66.623     286.613     -65.398
  O      -68.718     287.349     -66.762
  H      -65.878     285.993     -65.472
  H      -64.573     286.817     -67.190
  H      -64.627     288.412     -66.394
  H      -64.357     288.297     -68.148
  H      -72.185     279.501     -68.777
  H      -72.207     281.138     -69.386
  H      -73.193     280.705     -68.010

 3  4  5  6  7  8  9  10  11  12  13  23  28  29  30  31  32 0
 6-311+G(2d,p)
 ****
 33  34 0
 6-311+G(2d,p)
 ****
 1  2  14  15  16  17  18  19  20  21  22  24  25  26 0
 3-21G
 ****
 27  35  36  37  38  39  40  41  42  43  44  45 0
 3-21G
 ****


