%nproc=1
%NoSave
%Mem=1900MB
#P OB98/GEN NMR

erre ene a

0 1
  C       75.780    -101.432     106.042
  O       74.454    -101.920     106.008
  H       75.996    -100.868     105.131
  H       75.889    -100.767     106.903
  H       76.486    -102.260     106.144
  P       74.092    -102.906     104.794
  C       72.785    -104.760     106.039
  O       72.710    -103.630     105.184
  C       72.907    -104.309     107.493
  O       71.891    -103.302     107.741
  C       72.720    -105.439     108.519
  O       73.789    -105.435     109.472
  C       71.431    -105.079     109.235
  O       71.439    -105.443     110.611
  C       71.351    -103.571     109.040
  N       67.746    -102.055     112.311
  C       69.089    -102.124     112.433
  N       70.001    -102.443     111.492
  C       69.403    -102.679     110.312
  C       68.049    -102.625     110.030
  C       67.197    -102.315     111.103
  N       65.823    -102.300     110.993
  N       67.811    -102.937     108.704
  C       68.998    -103.217     108.206
  N       69.989    -103.090     109.144
  O       75.183    -104.072     104.932
  O       74.136    -102.272     103.445
  H       70.523    -105.372     110.936
  H       75.723    -104.094     104.120
  H       69.485    -101.898     113.420
  H       69.191    -103.559     107.197
  H       71.962    -103.032     109.777
  H       70.595    -105.591     108.744
  H       72.654    -106.426     108.051
  H       73.882    -103.824     107.630
  H       73.664    -105.361     105.778
  H       65.286    -102.183     111.837
  H       65.407    -102.601     110.124
  H       71.888    -105.372     105.903
  P       75.006    -106.444     109.177
  C       76.730    -105.076     110.557
  O       76.060    -106.318     110.385
  O       75.752    -105.761     107.937
  O       74.571    -107.834     108.854
  H       75.805    -106.391     107.192
  H       77.394    -105.142     111.393
  H       76.010    -104.304     110.733
  H       77.289    -104.847     109.674

 6  7  8  9  10  11  12  13  14  15  25  28  32  33  34  35 0
 6-311+G(2d,p)
 ****
 36  39  40 0
 6-311+G(2d,p)
 ****
 1  2  3  4  5  16  17  18  19  20  21  22  23  24 0
 3-21G
 ****
 26  27  29  30  31  37  38  41  42  43  44  45  46  47  48 0
 3-21G
 ****


