%nproc=1
%NoSave
%Mem=1900MB
#P OB98/GEN NMR

erre ene a

0 1
  C     -205.855     196.344     -35.284
  O     -206.001     195.418     -36.351
  P     -206.464     196.014     -37.772
  C     -208.960     195.416     -37.257
  O     -208.009     196.418     -37.608
  C     -210.288     196.079     -36.894
  O     -210.084     197.106     -35.903
  C     -210.991     196.753     -38.069
  O     -211.704     195.797     -38.832
  C     -211.885     197.760     -37.345
  O     -213.082     197.126     -36.857
  C     -210.987     198.214     -36.189
  N     -211.287     203.210     -36.956
  C     -212.291     202.257     -36.867
  N     -213.562     202.718     -36.947
  N     -212.070     200.981     -36.703
  C     -210.757     200.661     -36.650
  C     -209.672     201.509     -36.746
  C     -209.931     202.924     -36.867
  O     -209.083     203.814     -36.849
  N     -208.491     200.820     -36.670
  C     -208.861     199.566     -36.501
  N     -210.218     199.421     -36.466
  O     -206.494     194.718     -38.708
  O     -205.599     197.102     -38.317
  H     -213.533     197.728     -36.231
  H     -205.681     194.660     -39.246
  H     -211.520     204.180     -37.061
  H     -208.177     198.735     -36.385
  H     -211.560     198.406     -35.274
  H     -212.211     198.568     -38.008
  H     -213.807     203.679     -37.093
  H     -210.265     197.286     -38.693
  H     -214.304     202.035     -36.888
  H     -210.934     195.308     -36.447
  H     -208.588     194.859     -36.396
  H     -209.088     194.732     -38.095
  P     -211.961     196.135     -40.380
  C     -214.364     197.109     -40.159
  O     -212.996     197.357     -40.428
  O     -212.821     194.879     -40.886
  O     -210.726     196.300     -41.189
  H     -212.586     194.664     -41.804
  H     -214.805     198.010     -39.726
  H     -214.491     196.278     -39.459
  H     -214.876     196.872     -41.095
  H     -205.545     195.825     -34.401
  H     -206.791     196.830     -35.103
  H     -205.118     197.075     -35.545

 3  4  5  6  7  8  9  10  11  12  23  26  30  31 0
 6-311+G(2d,p)
 ****
 33  35  36  37  38 0
 6-311+G(2d,p)
 ****
 1  2  13  14  15  16  17  18  19  20  21  22  24  25 0
 3-21G
 ****
 27  28  29  32  34  39  40  41  42  43  44  45  46  47  48  49 0
 3-21G
 ****


