%nproc=1
%NoSave
%Mem=1900MB
#P OB98/GEN NMR

erre ene a

0 1
  C       29.100      17.186    -107.606
  O       28.992      17.681    -106.278
  P       29.619      19.129    -105.971
  C       32.027      18.191    -105.708
  O       30.931      18.851    -105.087
  C       33.215      18.106    -104.754
  O       33.638      19.433    -104.375
  C       32.930      17.384    -103.446
  O       33.011      15.972    -103.585
  C       34.060      17.900    -102.574
  O       35.278      17.190    -102.885
  C       34.172      19.359    -103.026
  N       34.432      22.202     -98.784
  C       35.302      21.332     -99.339
  N       35.156      20.606    -100.467
  C       33.947      20.814    -101.013
  C       32.943      21.642    -100.539
  C       33.219      22.371     -99.370
  N       32.344      23.276     -98.820
  N       31.841      21.593    -101.368
  C       32.176      20.760    -102.331
  N       33.445      20.270    -102.166
  O       28.586      19.752    -104.917
  O       29.801      20.002    -107.165
  H       35.109      16.247    -102.695
  H       28.644      20.728    -104.930
  H       36.249      21.212     -98.813
  H       31.544      20.492    -103.168
  H       35.212      19.704    -103.069
  H       33.875      17.757    -101.508
  H       31.966      17.696    -103.018
  H       34.046      17.627    -105.289
  H       32.323      18.749    -106.601
  H       32.687      23.889     -98.097
  H       31.533      23.547     -99.369
  H       31.713      17.188    -106.012
  P       31.630      15.152    -103.521
  C       31.560      15.488    -100.945
  O       31.552      14.579    -102.032
  O       31.933      13.862    -104.419
  O       30.443      15.919    -104.002
  H       31.103      13.503    -104.788
  H       31.193      14.975    -100.053
  H       30.916      16.348    -101.144
  H       32.581      15.831    -100.758
  H       28.643      16.220    -107.665
  H       30.133      17.109    -107.875
  H       28.605      17.856    -108.278

 3  4  5  6  7  8  9  10  11  12  22  25  29  30  31  32 0
 6-311+G(2d,p)
 ****
 33  36  37 0
 6-311+G(2d,p)
 ****
 1  2  13  14  15  16  17  18  19  20  21  23  24  26 0
 3-21G
 ****
 27  28  34  35  38  39  40  41  42  43  44  45  46  47  48 0
 3-21G
 ****


