%nproc=1
%NoSave
%Mem=1900MB
#P OB98/GEN NMR

erre ene a

0 1
  C      176.397    -968.526      17.797
  O      175.388    -968.003      18.654
  P      174.043    -968.862      18.875
  C      174.707    -969.847      21.244
  O      174.320    -970.052      19.893
  C      174.723    -971.192      21.978
  O      173.363    -971.703      22.125
  C      175.521    -972.273      21.264
  O      176.892    -972.227      21.605
  C      174.826    -973.543      21.711
  O      175.236    -973.891      23.048
  C      173.350    -973.096      21.703
  N      172.591    -973.198      20.422
  C      172.282    -974.439      19.884
  O      172.597    -975.513      20.415
  N      171.568    -974.452      18.726
  C      171.004    -973.364      18.128
  O      170.318    -973.424      17.104
  C      171.216    -972.082      18.796
  C      172.011    -972.051      19.888
  O      173.842    -969.612      17.466
  O      172.848    -968.058      19.252
  H      174.726    -974.676      23.312
  H      173.027    -969.304      17.027
  H      171.397    -975.338      18.284
  H      170.749    -971.189      18.391
  H      172.185    -971.108      20.399
  H      172.765    -973.645      22.447
  H      175.092    -974.389      21.084
  H      175.383    -972.177      20.170
  H      175.115    -971.035      22.985
  H      174.024    -969.155      21.740
  H      175.698    -969.396      21.279
  P      178.016    -972.318      20.472
  C      178.908    -970.203      21.614
  O      178.663    -970.837      20.382
  O      177.570    -972.894      19.148
  O      179.193    -973.157      21.150
  H      179.118    -974.107      20.888
  H      179.488    -969.285      21.436
  H      179.482    -970.849      22.283
  H      177.943    -969.926      22.079
  H      177.219    -967.843      17.756
  H      175.996    -968.661      16.814
  H      176.735    -969.468      18.177

 3  4  5  6  7  8  9  10  11  12  13  23  28  29  30  31  32 0
 6-311+G(2d,p)
 ****
 33  34 0
 6-311+G(2d,p)
 ****
 1  2  14  15  16  17  18  19  20  21  22  24  25  26  27 0
 3-21G
 ****
 35  36  37  38  39  40  41  42  43  44  45 0
 3-21G
 ****


