%nproc=1
%NoSave
%Mem=1900MB
#P OB98/GEN NMR

erre ene a

0 1
  C     -238.946      26.320     481.716
  O     -240.051      27.173     482.043
  P     -241.511      27.026     481.393
  C     -240.653      28.066     479.182
  O     -241.340      26.983     479.794
  C     -240.046      27.644     477.835
  O     -241.102      27.258     476.920
  C     -239.285      28.729     477.095
  O     -238.027      29.009     477.682
  C     -239.207      28.133     475.693
  O     -238.102      27.224     475.578
  C     -240.537      27.355     475.592
  N     -241.477      27.971     474.666
  C     -241.069      28.058     473.325
  O     -239.933      27.703     472.993
  N     -241.956      28.564     472.407
  C     -243.102      29.030     472.799
  N     -243.943      29.501     471.840
  C     -243.507      29.078     474.218
  C     -242.660      28.539     475.081
  O     -242.495      28.046     481.864
  O     -241.995      25.542     481.772
  H     -242.970      25.511     481.784
  H     -238.050      26.720     476.411
  H     -244.455      29.523     474.506
  H     -242.882      28.520     476.144
  H     -240.346      26.324     475.276
  H     -239.081      28.897     474.922
  H     -239.892      29.645     477.065
  H     -239.401      26.769     478.018
  H     -243.638      29.443     470.876
  H     -239.839      28.380     479.854
  H     -244.866      29.860     472.040
  H     -241.345      28.910     479.051
  P     -237.971      30.223     478.734
  C     -237.725      31.936     476.789
  O     -238.433      31.548     477.959
  O     -236.391      30.443     478.959
  O     -238.670      29.966     480.020
  H     -236.227      30.654     479.897
  H     -238.407      32.505     476.147
  H     -237.359      31.067     476.238
  H     -236.882      32.576     477.067
  H     -238.086      26.618     482.279
  H     -238.733      26.398     480.670
  H     -239.195      25.307     481.955

 3  4  5  6  7  8  9  10  11  12  13  24  27  28  29  30  32 0
 6-311+G(2d,p)
 ****
 34  35 0
 6-311+G(2d,p)
 ****
 1  2  14  15  16  17  18  19  20  21  22  23  25  26 0
 3-21G
 ****
 31  33  36  37  38  39  40  41  42  43  44  45  46 0
 3-21G
 ****


