%nproc=1
%NoSave
%Mem=1900MB
#P OB98/GEN NMR

erre ene a

0 1
  C     -250.392      14.120     -69.919
  O     -251.056      14.750     -71.001
  P     -250.586      16.221     -71.428
  C     -252.666      17.483     -70.520
  O     -251.265      17.270     -70.419
  C     -253.136      18.507     -69.484
  O     -254.567      18.713     -69.618
  C     -252.872      18.077     -68.036
  O     -252.585      19.241     -67.241
  C     -254.212      17.539     -67.580
  O     -254.338      17.584     -66.158
  C     -255.166      18.465     -68.330
  N     -259.206      16.677     -65.873
  C     -258.150      17.429     -65.396
  N     -258.129      17.659     -64.064
  N     -257.205      17.914     -66.152
  C     -257.352      17.598     -67.464
  C     -258.363      16.874     -68.060
  C     -259.395      16.330     -67.202
  O     -260.341      15.632     -67.561
  N     -258.188      16.788     -69.415
  C     -257.054      17.424     -69.642
  N     -256.490      17.900     -68.485
  O     -251.374      16.462     -72.805
  O     -249.113      16.373     -71.619
  H     -255.291      17.507     -65.955
  H     -250.753      16.383     -73.555
  H     -259.904      16.313     -65.245
  H     -256.588      17.546     -70.611
  H     -255.273      19.432     -67.822
  H     -254.324      16.497     -67.898
  H     -258.791      17.256     -63.416
  H     -252.062      17.350     -67.917
  H     -257.346      18.171     -63.682
  H     -252.653      19.467     -69.697
  H     -253.183      16.539     -70.348
  H     -252.911      17.830     -71.529
  P     -252.036      18.960     -65.758
  C     -253.956      20.446     -64.822
  O     -253.278      19.207     -64.780
  O     -251.078      20.211     -65.478
  O     -251.329      17.654     -65.603
  H     -250.395      19.977     -64.820
  H     -254.991      20.272     -65.138
  H     -253.488      21.156     -65.508
  H     -253.965      20.884     -63.819
  H     -250.816      13.151     -69.756
  H     -250.508      14.713     -69.036
  H     -249.352      14.021     -70.148

 3  4  5  6  7  8  9  10  11  12  23  26  30  31 0
 6-311+G(2d,p)
 ****
 33  35  36  37  38 0
 6-311+G(2d,p)
 ****
 1  2  13  14  15  16  17  18  19  20  21  22  24  25 0
 3-21G
 ****
 27  28  29  32  34  39  40  41  42  43  44  45  46  47  48  49 0
 3-21G
 ****


