%nproc=1
%NoSave
%Mem=1900MB
#P OB98/GEN NMR

erre ene a

0 1
  C      300.432     125.641     111.743
  O      299.846     124.423     112.160
  H      300.384     125.698     110.652
  H      301.481     125.678     112.055
  H      299.888     126.488     112.166
  P      299.804     124.155     113.741
  C      297.520     125.375     114.043
  O      298.254     124.165     114.151
  C      296.122     125.208     114.653
  O      295.475     126.514     114.701
  C      295.197     124.284     113.842
  O      294.266     123.680     114.756
  C      294.467     125.280     112.956
  O      293.338     124.690     112.356
  C      294.234     126.397     113.969
  N      290.373     129.459     112.606
  C      290.396     128.277     113.257
  N      291.463     127.527     113.594
  C      292.605     128.122     113.211
  C      292.741     129.332     112.549
  C      291.554     130.016     112.238
  N      291.528     131.217     111.570
  N      294.078     129.615     112.322
  C      294.734     128.595     112.838
  N      293.885     127.667     113.379
  O      300.371     125.519     114.358
  O      300.572     122.966     114.211
  H      292.864     125.337     111.792
  H      301.327     125.432     114.534
  H      289.425     127.877     113.539
  H      295.808     128.474     112.841
  H      293.448     126.136     114.688
  H      295.113     125.621     112.140
  H      295.734     123.503     113.298
  H      296.222     124.866     115.689
  H      297.435     125.636     112.983
  H      298.052     126.174     114.571
  H      290.633     131.633     111.371
  H      292.398     131.634     111.274
  P      294.491     122.153     115.208
  C      295.559     122.694     117.535
  O      294.499     122.087     116.810
  O      296.041     121.930     114.861
  O      293.643     121.140     114.513
  H      296.199     120.986     114.666
  H      295.401     122.552     118.584
  H      295.587     123.741     117.317
  H      296.488     122.246     117.251

 6  7  8  9  10  11  12  13  14  15  25  28  32  33  34  35 0
 6-311+G(2d,p)
 ****
 36  37  40 0
 6-311+G(2d,p)
 ****
 1  2  3  4  5  16  17  18  19  20  21  22  23  24 0
 3-21G
 ****
 26  27  29  30  31  38  39 41  42  43  44  45  46  47  48 0
 3-21G
 ****


