%nproc=1
%NoSave
%Mem=1900MB
#P OB98/GEN NMR

erre ene a

0 1
  C     -143.682    -328.241    -113.597
  O     -143.608    -329.471    -114.287
  H     -144.719    -328.073    -113.291
  H     -143.372    -327.417    -114.244
  H     -143.055    -328.268    -112.701
  P     -142.201    -329.923    -114.904
  C     -140.840    -329.374    -117.028
  O     -142.082    -329.225    -116.345
  C     -140.877    -328.619    -118.360
  O     -141.729    -329.362    -119.268
  C     -141.451    -327.199    -118.217
  O     -140.600    -326.192    -118.762
  C     -142.853    -327.328    -118.799
  O     -143.387    -326.128    -119.319
  C     -142.701    -328.457    -119.825
  N     -143.947    -329.159    -120.121
  C     -144.887    -328.486    -120.900
  O     -144.740    -327.364    -121.375
  N     -146.050    -329.173    -121.142
  C     -146.362    -330.419    -120.687
  O     -147.418    -330.984    -120.944
  C     -145.338    -331.067    -119.853
  C     -144.197    -330.418    -119.612
  O     -141.933    -331.393    -114.897
  O     -141.121    -329.127    -114.030
  H     -143.660    -325.572    -118.563
  H     -140.719    -329.732    -113.379
  H     -146.735    -328.698    -121.714
  H     -145.553    -332.052    -119.468
  H     -143.418    -330.868    -119.000
  H     -142.305    -328.070    -120.764
  H     -143.528    -327.658    -117.999
  H     -141.530    -326.915    -117.159
  H     -139.870    -328.607    -118.790
  H     -140.676    -330.441    -117.201
  H     -140.027    -328.984    -116.404
  P     -140.302    -324.784    -118.071
  C     -141.491    -322.447    -117.967
  O     -141.505    -323.789    -118.434
  O     -138.917    -324.259    -118.244
  O     -140.519    -325.084    -116.500
  H     -139.894    -324.508    -116.017
  H     -142.370    -321.941    -118.308
  H     -140.623    -321.947    -118.344
  H     -141.469    -322.442    -116.897

 6  7  8  9  10  11  12  13  14  15  16  26  31  32  33  34  35 0
 6-311+G(2d,p)
 ****
 36  37 0
 6-311+G(2d,p)
 ****
 1  2  3  4  5  17  18  19  20  21  22  23  24  25 0
 3-21G
 ****
 27  28  29  30  38  39  40  41  42  43  44  45 0
 3-21G
 ****


