%nproc=1
%NoSave
%Mem=1900MB
#P OB98/GEN NMR

erre ene a

0 1
  C     -496.272     236.373     -53.173
  O     -496.231     234.972     -52.934
  P     -497.285     234.074     -53.729
  C     -495.686     232.985     -55.490
  O     -496.483     232.816     -54.324
  C     -494.790     231.761     -55.691
  O     -493.689     231.787     -54.767
  C     -495.503     230.428     -55.461
  O     -496.305     230.070     -56.575
  C     -494.328     229.496     -55.207
  O     -493.773     229.037     -56.456
  C     -493.333     230.414     -54.471
  N     -493.296     230.160     -53.046
  C     -492.390     229.193     -52.605
  O     -491.669     228.559     -53.399
  N     -492.370     228.928     -51.273
  C     -493.176     229.507     -50.330
  O     -493.127     229.203     -49.145
  C     -494.118     230.503     -50.828
  C     -494.147     230.775     -52.128
  O     -497.641     234.933     -55.031
  O     -498.514     233.704     -52.951
  H     -493.154     228.322     -56.235
  H     -498.581     234.807     -55.271
  H     -491.700     228.251     -50.942
  H     -494.784     230.974     -50.109
  H     -494.861     231.501     -52.540
  H     -492.318     230.276     -54.882
  H     -494.620     228.608     -54.637
  H     -496.109     230.503     -54.535
  H     -494.397     231.805     -56.715
  H     -495.085     233.878     -55.392
  H     -496.359     233.116     -56.350
  P     -497.420     228.928     -56.322
  C     -499.237     230.775     -56.172
  O     -498.802     229.599     -56.794
  O     -497.477     228.901     -54.726
  O     -497.061     227.628     -56.964
  H     -497.292     229.770     -54.340
  H     -498.420     231.438     -55.894
  H     -499.820     230.521     -55.261
  H     -499.913     231.323     -56.859
  H     -495.521     236.857     -52.584
  H     -497.236     236.753     -52.905
  H     -496.090     236.563     -54.210

 3  4  5  6  7  8  9  10  11  12  13  23  28  29  30  31  32 0
 6-311+G(2d,p)
 ****
 33  34 0
 6-311+G(2d,p)
 ****
 1  2  14  15  16  17  18  19  20  21  22  24  25  26 0
 3-21G
 ****
 27  35  36  37  38  39  40  41  42  43  44  45 0
 3-21G
 ****


