%nproc=1
%NoSave
%Mem=1900MB
#P OB98/GEN NMR

erre ene a

0 1
  C     2387.923    -712.236    -268.396
  O     2386.864    -711.394    -268.880
  P     2385.368    -711.981    -268.859
  C     2384.096    -710.135    -267.520
  O     2384.644    -711.455    -267.532
  C     2384.970    -709.210    -266.662
  O     2386.259    -708.961    -267.258
  C     2384.338    -707.831    -266.436
  O     2383.422    -707.858    -265.394
  C     2385.590    -707.025    -266.025
  O     2385.882    -707.268    -264.649
  C     2386.680    -707.624    -266.924
  N     2389.667    -704.140    -269.223
  C     2389.696    -704.664    -267.976
  N     2388.848    -705.579    -267.438
  C     2387.929    -705.957    -268.317
  C     2387.763    -705.511    -269.639
  C     2388.700    -704.561    -270.091
  N     2388.685    -704.037    -271.362
  N     2386.698    -706.122    -270.256
  C     2386.206    -706.943    -269.337
  N     2386.905    -706.873    -268.151
  O     2385.590    -713.549    -268.572
  O     2384.616    -711.765    -270.128
  H     2386.701    -706.779    -264.423
  H     2384.914    -714.067    -269.028
  H     2390.479    -704.308    -267.338
  H     2385.360    -707.578    -269.465
  H     2387.647    -707.688    -266.412
  H     2385.419    -705.949    -266.128
  H     2383.921    -707.427    -267.377
  H     2385.135    -709.708    -265.691
  H     2383.080    -710.157    -267.125
  H     2389.384    -703.392    -271.634
  H     2387.983    -704.374    -271.992
  H     2384.023    -709.784    -268.559
  P     2381.861    -707.551    -265.786
  C     2380.920    -709.980    -265.733
  O     2381.332    -708.874    -266.511
  O     2381.984    -706.479    -266.958
  O     2381.025    -707.057    -264.641
  H     2381.229    -705.879    -266.972
  H     2380.321    -710.654    -266.344
  H     2380.303    -709.640    -264.883
  H     2381.770    -710.513    -265.335
  H     2388.855    -711.715    -268.471
  H     2387.965    -713.129    -268.984
  H     2387.737    -712.490    -267.373

 3  4  5  6  7  8  9  10  11  12  22  25  29  30  31  32 0
 6-311+G(2d,p)
 ****
 33  36  37 0
 6-311+G(2d,p)
 ****
 1  2  13  14  15  16  17  18  19  20  21  23  24  26 0
 3-21G
 ****
 27  28  34  35  38  39  40  41  42  43  44  45  46  47  48 0
 3-21G
 ****


