%nproc=1
%NoSave
%Mem=1900MB
#P OB98/GEN NMR

erre ene a

0 1
  C      368.343     343.823     214.722
  O      368.834     343.072     215.846
  P      370.381     343.118     216.291
  C      372.702     343.025     215.174
  O      371.298     342.837     215.002
  C      373.512     342.206     214.153
  O      373.529     340.808     214.504
  C      372.971     342.268     212.726
  O      373.347     343.482     212.103
  C      373.591     341.013     212.116
  O      374.950     341.264     211.729
  C      373.542     340.034     213.298
  N      372.019     335.184     212.646
  C      373.252     335.752     212.673
  N      373.578     337.053     212.841
  C      372.468     337.798     213.027
  C      371.148     337.354     213.021
  C      370.939     335.984     212.815
  N      369.686     335.409     212.769
  N      370.284     338.410     213.216
  C      371.060     339.471     213.358
  N      372.386     339.145     213.252
  O      370.702     342.257     217.468
  O      370.659     344.664     216.615
  H      375.433     341.565     212.520
  H      371.376     344.731     217.282
  H      374.088     335.068     212.531
  H      370.714     340.487     213.542
  H      374.443     339.398     213.338
  H      373.057     340.667     211.226
  H      371.881     342.168     212.731
  H      374.548     342.567     214.183
  H      372.967     342.706     216.191
  H      369.623     334.419     212.586
  H      368.875     336.004     212.853
  H      372.925     344.088     215.063
  P      372.239     344.392     211.376
  C      371.396     344.759     208.984
  O      372.350     344.109     209.806
  O      372.234     345.835     211.765
  O      370.852     343.688     211.768
  H      370.145     344.352     211.797
  H      370.447     344.210     209.010
  H      371.772     344.767     207.955
  H      371.237     345.790     209.309
  H      367.294     343.647     214.606
  H      368.856     343.515     213.835
  H      368.513     344.866     214.888

 3  4  5  6  7  8  9  10  11  12  22  25  29  30  31  32 0
 6-311+G(2d,p)
 ****
 33  36  37 0
 6-311+G(2d,p)
 ****
 1  2  13  14  15  16  17  18  19  20  21  23  24  26 0
 3-21G
 ****
 27  28  34  35  38  39  40  41  42  43  44  45  46  47  48 0
 3-21G
 ****


