%nproc=1
%NoSave
%Mem=1900MB
#P OB98/GEN NMR

erre ene a

0 1
  C     -609.727      31.581     280.660
  O     -609.428      30.496     279.812
  P     -610.456      29.283     279.650
  C     -610.203      29.057     277.100
  O     -611.092      29.361     278.173
  C     -610.751      29.646     275.795
  O     -610.637      31.094     275.824
  C     -609.973      29.200     274.549
  O     -610.328      27.879     274.173
  C     -610.393      30.280     273.545
  O     -611.679      29.980     272.986
  C     -610.475      31.522     274.448
  N     -608.093      34.990     271.532
  C     -609.160      34.202     271.301
  N     -609.719      33.271     272.106
  C     -609.033      33.179     273.260
  C     -607.885      33.897     273.636
  C     -607.430      34.851     272.711
  N     -606.367      35.715     272.965
  N     -607.455      33.500     274.886
  C     -608.293      32.562     275.267
  N     -609.298      32.383     274.354
  O     -611.460      29.143     280.760
  O     -609.519      27.984     279.572
  H     -611.633      29.047     272.678
  H     -609.728      27.387     280.311
  H     -609.660      34.333     270.340
  H     -608.239      32.002     276.180
  H     -611.350      32.141     274.202
  H     -609.675      30.371     272.720
  H     -608.887      29.272     274.730
  H     -611.802      29.386     275.711
  H     -610.121      27.968     277.008
  H     -606.230      36.460     272.300
  H     -606.091      35.842     273.924
  H     -609.213      29.465     277.324
  P     -609.348      26.663     274.521
  C     -611.086      25.027     275.490
  O     -610.000      25.886     275.772
  O     -607.898      27.014     274.664
  O     -609.588      25.638     273.308
  H     -608.752      25.162     273.116
  H     -611.992      25.629     275.354
  H     -611.215      24.344     276.328
  H     -610.899      24.448     274.571
  H     -608.922      32.286     280.635
  H     -609.859      31.226     281.661
  H     -610.627      32.055     280.329

 3  4  5  6  7  8  9  10  11  12  22  25  29  30  31  32 0
 6-311+G(2d,p)
 ****
 33  36  37 0
 6-311+G(2d,p)
 ****
 1  2  13  14  15  16  17  18  19  20  21  23  24  26 0
 3-21G
 ****
 27  28  34  35  38  39  40  41  42  43  44  45  46  47  48 0
 3-21G
 ****


