%nproc=1
%NoSave
%Mem=1900MB
#P OB98/GEN NMR

erre ene a

0 1
  C       29.164     -29.646      31.431
  O       29.323     -28.483      32.212
  H       28.754     -30.437      32.065
  H       30.137     -29.969      31.050
  H       28.481     -29.477      30.596
  P       29.479     -27.074      31.471
  C       32.028     -26.785      31.200
  O       30.870     -26.424      31.941
  C       33.263     -26.902      32.093
  O       33.642     -25.602      32.595
  C       33.009     -27.773      33.324
  O       33.156     -29.166      33.122
  C       34.060     -27.248      34.298
  O       35.323     -27.901      34.091
  C       34.155     -25.766      33.929
  N       33.477     -21.071      35.821
  C       34.415     -21.513      34.909
  N       35.322     -20.601      34.495
  N       34.464     -22.741      34.465
  C       33.556     -23.563      35.039
  C       32.586     -23.243      35.963
  C       32.505     -21.867      36.408
  O       31.698     -21.425      37.219
  N       31.842     -24.343      36.313
  C       32.408     -25.338      35.661
  N       33.436     -24.910      34.854
  O       28.398     -26.142      32.203
  O       29.252     -27.100      29.990
  H       35.898     -27.705      34.852
  H       28.110     -25.432      31.602
  H       33.469     -20.107      36.107
  H       32.099     -26.376      35.716
  H       35.196     -25.422      33.915
  H       33.775     -27.434      35.338
  H       35.395     -19.679      34.897
  H       32.019     -27.563      33.741
  H       36.172     -20.944      34.044
  H       34.104     -27.278      31.498
  H       32.180     -26.002      30.454
  H       31.856     -27.719      30.659
  P       31.970     -30.163      33.524
  C       33.442     -30.894      35.542
  O       32.605     -31.285      34.476
  O       31.682     -30.941      32.157
  O       30.746     -29.502      34.055
  H       30.934     -30.530      31.686
  H       33.776     -31.762      36.070
  H       32.897     -30.258      36.208
  H       34.288     -30.365      35.156

 6  7  8  9  10  11  12  13  14  15  26  29  33  34 0
 6-311+G(2d,p)
 ****
 36  38  39  40  41 0
 6-311+G(2d,p)
 ****
 1  2  3  4  5  16  17  18  19  20  21  22  23  24  25 0
 3-21G
 ****
 27  28  30  31  32  35  37  42  43  44  45  46  47 0
 3-21G
 ****
 48  49 0
 3-21G
 ****


