%nproc=1
%NoSave
%Mem=1900MB
#P OB98/GEN NMR

erre ene a

0 1
  C     -132.275      65.170     439.412
  O     -131.744      65.719     440.601
  H     -131.606      64.382     439.058
  H     -132.358      65.935     438.634
  H     -133.261      64.727     439.605
  P     -132.486      66.975     441.262
  C     -132.297      69.549     441.074
  O     -131.796      68.287     440.651
  C     -131.283      70.667     440.776
  O     -130.091      70.447     441.581
  C     -130.842      70.721     439.305
  O     -130.518      72.090     439.003
  C     -129.579      69.876     439.338
  O     -128.808      70.048     438.175
  C     -128.970      70.340     440.669
  N     -127.946      69.438     441.163
  C     -126.622      69.782     440.881
  O     -126.375      70.797     440.226
  N     -125.615      68.951     441.307
  C     -125.911      67.841     441.905
  N     -124.863      67.050     442.289
  C     -127.294      67.403     442.174
  C     -128.252      68.242     441.786
  O     -132.589      66.961     442.754
  O     -133.933      66.974     440.577
  H     -128.071      69.389     438.146
  H     -134.597      66.643     441.212
  H     -127.487      66.457     442.653
  H     -129.304      68.008     441.940
  H     -128.536      71.343     440.572
  H     -129.831      68.813     439.387
  H     -131.598      70.353     438.612
  H     -131.712      71.619     441.100
  H     -123.928      67.386     442.077
  H     -132.476      69.490     442.153
  H     -124.968      66.159     442.746
  H     -133.247      69.765     440.567
  P     -131.354      72.960     437.950
  C     -131.487      73.195     435.379
  O     -131.161      72.350     436.476
  O     -131.084      74.436     438.032
  O     -132.891      72.660     438.277
  H     -133.428      73.451     438.062
  H     -131.315      72.671     434.462
  H     -130.874      74.072     435.410
  H     -132.517      73.478     435.440

 6  7  8  9  10  11  12  13  14  15  16  26  30  31  32  33  35 0
 6-311+G(2d,p)
 ****
 37  38 0
 6-311+G(2d,p)
 ****
 1  2  3  4  5  17  18  19  20  21  22  23  24  25 0
 3-21G
 ****
 27  28  29  34  36  39  40  41  42  43  44  45  46 0
 3-21G
 ****


