%nproc=1
%NoSave
%Mem=1900MB
#P OB98/GEN NMR

erre ene a

0 1
  C      232.105    -233.376     509.782
  O      231.606    -234.457     509.021
  H      232.808    -232.806     509.166
  H      232.630    -233.741     510.670
  H      231.283    -232.717     510.083
  P      230.635    -235.482     509.792
  C      232.436    -237.361     509.661
  O      231.646    -236.517     510.487
  C      232.041    -238.819     509.883
  O      232.629    -239.670     508.881
  C      232.491    -239.390     511.229
  O      231.660    -238.989     512.299
  C      232.372    -240.879     510.941
  O      230.985    -241.266     510.980
  C      232.930    -240.956     509.502
  N      234.365    -241.229     509.457
  C      234.742    -242.577     509.412
  O      233.897    -243.468     509.430
  N      236.085    -242.884     509.390
  C      236.968    -241.940     509.398
  N      238.287    -242.303     509.389
  C      236.614    -240.513     509.424
  C      235.313    -240.226     509.457
  O      229.993    -236.354     508.614
  O      229.634    -234.865     510.715
  H      230.652    -241.034     511.868
  H      229.468    -237.098     508.994
  H      237.385    -239.751     509.442
  H      234.973    -239.196     509.476
  H      232.405    -241.722     508.921
  H      232.898    -241.496     511.673
  H      233.546    -239.156     511.426
  H      230.945    -238.891     509.770
  H      238.501    -243.288     509.434
  H      233.491    -237.215     509.920
  H      239.034    -241.651     509.578
  H      232.289    -237.104     508.605
  P      232.199    -239.259     513.795
  C      230.366    -241.040     514.289
  O      231.761    -240.759     514.188
  O      231.238    -238.344     514.690
  O      233.648    -238.942     514.013
  H      231.739    -237.934     515.430
  H      230.227    -242.067     514.555
  H      229.895    -240.848     513.348
  H      229.930    -240.415     515.040

 6  7  8  9  10  11  12  13  14  15  16  26  30  31  32  33  35 0
 6-311+G(2d,p)
 ****
 37  38 0
 6-311+G(2d,p)
 ****
 1  2  3  4  5  17  18  19  20  21  22  23  24  25 0
 3-21G
 ****
 27  28  29  34  36  39  40  41  42  43  44  45  46 0
 3-21G
 ****


