%nproc=1
%NoSave
%Mem=1900MB
#P OB98/GEN NMR

erre ene a

0 1
  C      266.462     -74.824      14.810
  O      267.346     -74.940      13.713
  H      267.014     -75.060      15.724
  H      265.637     -75.532      14.711
  H      266.077     -73.806      14.889
  P      266.780     -74.645      12.241
  C      267.808     -73.514      10.145
  O      267.948     -73.796      11.531
  C      269.175     -73.256       9.518
  O      269.881     -72.202      10.213
  C      270.131     -74.445       9.553
  O      269.806     -75.469       8.631
  C      271.432     -73.743       9.202
  O      271.460     -73.451       7.795
  C      271.306     -72.448      10.041
  N      271.970     -72.554      11.340
  C      273.366     -72.625      11.328
  O      273.986     -72.610      10.262
  N      274.038     -72.746      12.521
  C      273.367     -72.815      13.630
  N      274.082     -72.941      14.784
  C      271.896     -72.762      13.690
  C      271.266     -72.628      12.525
  O      265.414     -74.041      12.171
  O      266.897     -76.048      11.478
  H      272.390     -73.267       7.562
  H      266.547     -75.925      10.560
  H      271.382     -72.850      14.638
  H      270.184     -72.585      12.487
  H      271.718     -71.587       9.500
  H      272.317     -74.340       9.427
  H      270.218     -74.849      10.572
  H      269.007     -72.908       8.490
  H      275.091     -72.976      14.709
  H      267.155     -72.644      10.040
  H      273.642     -73.074      15.685
  H      267.350     -74.367       9.637
  P      270.613     -76.857       8.768
  C      270.532     -79.137       7.498
  O      269.923     -77.879       7.744
  O      270.176     -77.387      10.208
  O      272.096     -76.741       8.619
  H      270.854     -77.176      10.878
  H      269.942     -79.687       6.795
  H      270.599     -79.686       8.414
  H      271.514     -78.986       7.100

 6  7  8  9  10  11  12  13  14  15  16  26  30  31  32  33  35 0
 6-311+G(2d,p)
 ****
 37  38 0
 6-311+G(2d,p)
 ****
 1  2  3  4  5  17  18  19  20  21  22  23  24  25 0
 3-21G
 ****
 27  28  29  34  36  39  40  41  42  43  44  45  46 0
 3-21G
 ****


