%nproc=1
%NoSave
%Mem=1900MB
#P OB98/GEN NMR

erre ene a

0 1
  C     -243.075      70.190    -177.769
  O     -243.636      71.487    -177.826
  H     -243.433      69.589    -178.609
  H     -241.988      70.275    -177.834
  H     -243.337      69.705    -176.824
  P     -245.233      71.583    -177.716
  C     -245.381      70.996    -180.239
  O     -245.767      71.883    -179.200
  C     -245.815      71.552    -181.591
  O     -245.425      70.651    -182.647
  C     -247.320      71.744    -181.750
  O     -247.768      72.939    -181.130
  C     -247.438      71.823    -183.264
  O     -247.059      73.138    -183.713
  C     -246.393      70.792    -183.721
  N     -248.561      67.883    -187.331
  C     -248.030      69.125    -187.370
  N     -247.451      69.826    -186.373
  C     -247.434      69.106    -185.239
  C     -247.914      67.821    -185.048
  C     -248.507      67.201    -186.160
  N     -249.108      65.953    -186.089
  N     -247.731      67.418    -183.739
  C     -247.167      68.452    -183.149
  N     -246.962      69.491    -184.015
  O     -245.452      72.973    -176.944
  O     -245.891      70.448    -177.009
  H     -247.160      73.143    -184.684
  H     -245.584      72.792    -175.995
  H     -248.080      69.628    -188.331
  H     -246.899      68.494    -182.101
  H     -245.844      71.124    -184.611
  H     -248.451      71.635    -183.627
  H     -247.876      70.869    -181.394
  H     -245.283      72.498    -181.754
  H     -245.854      70.020    -180.081
  H     -249.867      65.831    -186.754
  H     -249.271      65.620    -185.146
  H     -244.295      70.872    -180.211
  P     -248.530      72.812    -179.726
  C     -250.909      72.541    -180.706
  O     -250.020      73.363    -179.964
  O     -247.839      73.951    -178.840
  O     -248.432      71.479    -179.065
  H     -247.476      73.557    -178.021
  H     -251.859      73.026    -180.788
  H     -251.030      71.603    -180.205
  H     -250.508      72.374    -181.684

 6  7  8  9  10  11  12  13  14  15  25  28  32  33  34  35 0
 6-311+G(2d,p)
 ****
 36  39  40 0
 6-311+G(2d,p)
 ****
 1  2  3  4  5  16  17  18  19  20  21  22  23  24 0
 3-21G
 ****
 26  27  29  30  31  37  38  41  42  43  44  45  46  47  48 0
 3-21G
 ****


