%nproc=1
%NoSave
%Mem=1900MB
#P OB98/GEN NMR

erre ene a

0 1
  C      776.473    -385.965    -239.572
  O      776.339    -386.043    -240.975
  H      776.878    -384.984    -239.309
  H      777.170    -386.735    -239.230
  H      775.504    -386.095    -239.077
  P      775.410    -387.210    -241.563
  C      773.409    -385.639    -242.068
  O      773.890    -386.749    -241.327
  C      772.076    -385.153    -241.496
  O      772.315    -384.608    -240.164
  C      771.390    -384.056    -242.332
  O      769.979    -384.256    -242.285
  C      771.724    -382.794    -241.557
  O      770.793    -381.738    -241.827
  C      771.678    -383.315    -240.131
  N      770.814    -379.872    -236.571
  C      769.958    -380.768    -237.191
  N      768.651    -380.701    -236.853
  N      770.348    -381.655    -238.072
  C      771.680    -381.626    -238.301
  C      772.632    -380.799    -237.763
  C      772.186    -379.807    -236.806
  O      772.890    -378.976    -236.241
  N      773.871    -381.048    -238.306
  C      773.661    -382.022    -239.179
  N      772.350    -382.407    -239.216
  O      775.615    -388.389    -240.496
  O      775.736    -387.653    -242.953
  H      770.951    -381.419    -242.735
  H      776.314    -388.995    -240.808
  H      770.460    -379.202    -235.917
  H      774.408    -382.461    -239.824
  H      770.654    -383.445    -239.757
  H      772.730    -382.444    -241.828
  H      768.279    -380.067    -236.161
  H      771.727    -384.023    -243.379
  H      768.016    -381.373    -237.264
  H      771.410    -386.014    -241.373
  H      773.256    -385.940    -243.112
  H      774.148    -384.836    -242.037
  P      769.332    -385.330    -243.286
  C      768.466    -386.970    -241.457
  O      769.334    -386.760    -242.568
  O      770.456    -385.485    -244.413
  O      768.023    -384.905    -243.870
  H      770.030    -385.642    -245.283
  H      768.587    -387.969    -241.094
  H      767.452    -386.822    -241.764
  H      768.708    -386.276    -240.679

 6  7  8  9  10  11  12  13  14  15  26  29  33  34 0
 6-311+G(2d,p)
 ****
 36  38  39  40  41 0
 6-311+G(2d,p)
 ****
 1  2  3  4  5  16  17  18  19  20  21  22  23  24  25 0
 3-21G
 ****
 27  28  30  31  32  35  37  42  43  44  45  46  47 0
 3-21G
 ****
 48  49 0
 3-21G
 ****


