%nproc=1
%NoSave
%Mem=1900MB
#P OB98/GEN NMR

erre ene a

0 1
  C      -60.224       7.767      12.900
  O      -60.686       7.655      11.563
  P      -59.862       8.298      10.345
  C      -60.967      10.296       9.163
  O      -60.287       9.844      10.328
  C      -62.368       9.692       9.105
  O      -62.974       9.818      10.414
  C      -63.347      10.366       8.144
  O      -63.254       9.922       6.798
  C      -64.678       9.912       8.731
  O      -64.951       8.558       8.327
  C      -64.406       9.972      10.236
  N      -66.972      12.099      14.119
  C      -66.690      10.812      13.818
  N      -66.017      10.324      12.753
  C      -65.578      11.326      11.974
  C      -65.781      12.685      12.154
  C      -66.516      13.066      13.289
  N      -66.782      14.381      13.605
  N      -65.193      13.405      11.130
  C      -64.636      12.495      10.359
  N      -64.832      11.225      10.831
  O      -60.001       7.571       9.054
  O      -58.353       8.346      10.872
  H      -64.247       8.000       8.712
  H      -57.741       8.471      10.121
  H      -67.060      10.071      14.524
  H      -64.085      12.707       9.454
  H      -64.890       9.156      10.785
  H      -65.522      10.520       8.394
  H      -63.280      11.460       8.207
  H      -62.275       8.622       8.878
  H      -60.398       9.969       8.284
  H      -67.202      14.567      14.502
  H      -66.306      15.103      13.079
  H      -61.007      11.389       9.160
  P      -63.922      10.857       5.671
  C      -65.906       9.434       4.726
  O      -65.467      10.434       5.621
  O      -63.213      10.850       4.362
  O      -63.954      12.294       6.377
  H      -64.553      12.370       7.135
  H      -66.945       9.185       4.959
  H      -65.301       8.530       4.823
  H      -65.857       9.803       3.697
  H      -60.911       7.275      13.557
  H      -60.153       8.801      13.167
  H      -59.260       7.310      12.984

 3  4  5  6  7  8  9  10  11  12  22  25  29  30  31  32 0
 6-311+G(2d,p)
 ****
 33  36  37 0
 6-311+G(2d,p)
 ****
 1  2  13  14  15  16  17  18  19  20  21  23  24  26 0
 3-21G
 ****
 27  28  34  35  38  39  40  41  42  43  44  45  46  47  48 0
 3-21G
 ****


