%nproc=1
%NoSave
%Mem=1900MB
#P OB98/GEN NMR

erre ene a

0 1
  C      -14.723     -22.196      28.436
  O      -14.637     -22.173      27.018
  P      -15.614     -23.133      26.183
  C      -13.551     -24.408      25.265
  O      -14.757     -23.723      24.959
  C      -12.744     -24.698      24.000
  O      -13.549     -25.505      23.100
  C      -12.310     -23.451      23.224
  O      -11.044     -23.744      22.622
  C      -13.362     -23.340      22.137
  O      -12.917     -22.560      21.031
  C      -13.595     -24.817      21.832
  N      -15.893     -26.493      17.585
  C      -14.591     -26.418      17.931
  N      -14.057     -25.960      19.082
  C      -15.021     -25.548      19.922
  C      -16.386     -25.531      19.693
  C      -16.823     -26.037      18.457
  N      -18.149     -26.125      18.105
  N      -17.053     -25.010      20.782
  C      -16.109     -24.717      21.651
  N      -14.869     -25.047      21.185
  O      -16.608     -22.096      25.479
  O      -16.359     -24.139      26.990
  H      -13.544     -22.687      20.295
  H      -17.504     -22.184      25.859
  H      -13.885     -26.780      17.189
  H      -16.271     -24.267      22.620
  H      -12.809     -25.236      21.191
  H      -14.265     -22.869      22.542
  H      -12.239     -22.545      23.836
  H      -11.871     -25.299      24.279
  H      -13.801     -25.359      25.746
  H      -18.389     -26.623      17.264
  H      -18.854     -25.966      18.817
  H      -12.958     -23.811      25.964
  P       -9.859     -22.695      22.873
  C      -10.215     -21.824      20.457
  O       -9.299     -22.280      21.433
  O       -8.690     -23.599      23.491
  O      -10.223     -21.568      23.783
  H       -8.119     -23.057      24.066
  H       -9.722     -21.075      19.831
  H      -11.105     -21.376      20.910
  H      -10.520     -22.666      19.830
  H      -14.014     -21.508      28.847
  H      -14.509     -23.183      28.790
  H      -15.710     -21.915      28.738

 3  4  5  6  7  8  9  10  11  12  22  25  29  30  31  32 0
 6-311+G(2d,p)
 ****
 33  36  37 0
 6-311+G(2d,p)
 ****
 1  2  13  14  15  16  17  18  19  20  21  23  24  26 0
 3-21G
 ****
 27  28  34  35  38  39  40  41  42  43  44  45  46  47  48 0
 3-21G
 ****


