%nproc=1
%NoSave
%Mem=1900MB
#P OB98/GEN NMR

erre ene a

0 1
  C       27.100     -40.275     -55.852
  O       27.367     -40.827     -54.580
  H       26.234     -39.612     -55.773
  H       26.868     -41.070     -56.566
  H       27.957     -39.696     -56.205
  P       28.635     -41.804     -54.470
  C       31.201     -41.383     -54.391
  O       29.924     -40.905     -54.798
  C       32.273     -40.871     -55.349
  O       32.054     -41.433     -56.662
  C       32.267     -39.359     -55.544
  O       32.901     -38.683     -54.472
  C       33.009     -39.229     -56.868
  O       34.430     -39.255     -56.680
  C       32.557     -40.483     -57.627
  N       31.728     -38.495     -62.246
  C       32.863     -38.717     -61.548
  N       33.000     -39.271     -60.325
  C       31.801     -39.619     -59.828
  C       30.561     -39.449     -60.419
  C       30.547     -38.858     -61.692
  N       29.389     -38.600     -62.387
  N       29.560     -39.890     -59.576
  C       30.184     -40.327     -58.502
  N       31.538     -40.187     -58.613
  O       28.482     -42.735     -55.765
  O       28.718     -42.601     -53.212
  H       34.635     -40.094     -56.224
  H       28.019     -43.558     -55.521
  H       33.783     -38.404     -62.036
  H       29.703     -40.740     -57.623
  H       33.387     -40.968     -58.154
  H       32.765     -38.291     -57.368
  H       31.240     -38.998     -55.677
  H       33.252     -41.213     -54.991
  H       31.199     -42.479     -54.407
  H       31.399     -41.041     -53.371
  H       29.453     -38.152     -63.287
  H       28.500     -38.769     -61.937
  P       32.551     -37.140     -54.228
  C       30.474     -35.894     -53.283
  O       30.972     -37.035     -53.962
  O       32.737     -36.488     -55.677
  O       33.395     -36.465     -53.199
  H       33.599     -36.036     -55.739
  H       29.411     -35.973     -53.184
  H       30.716     -35.013     -53.841
  H       30.919     -35.835     -52.312

 6  7  8  9  10  11  12  13  14  15  25  28  32  33  34  35 0
 6-311+G(2d,p)
 ****
 36  37  40 0
 6-311+G(2d,p)
 ****
 1  2  3  4  5  16  17  18  19  20  21  22  23  24 0
 3-21G
 ****
 26  27  29  30  31  38  39 41  42  43  44  45  46  47  48 0
 3-21G
 ****


