%nproc=1
%NoSave
%Mem=1900MB
#P OB98/GEN NMR

erre ene a

0 1
  C      551.860    -192.191      19.510
  O      551.688    -192.009      18.108
  P      550.216    -192.139      17.487
  C      550.743    -194.566      16.811
  O      549.819    -193.690      17.450
  C      550.440    -196.024      17.162
  O      549.024    -196.262      17.273
  C      550.934    -197.009      16.116
  O      552.344    -197.158      16.182
  C      550.133    -198.252      16.474
  O      550.749    -198.968      17.556
  C      548.789    -197.648      16.936
  N      547.727    -197.785      15.953
  C      547.287    -199.089      15.704
  O      547.817    -200.045      16.270
  N      546.264    -199.277      14.803
  C      545.739    -198.255      14.203
  N      544.730    -198.497      13.326
  C      546.185    -196.866      14.430
  C      547.178    -196.707      15.303
  O      549.981    -191.387      16.215
  O      549.284    -191.574      18.667
  H      550.951    -198.298      18.242
  H      548.489    -191.165      18.273
  H      545.710    -196.045      13.908
  H      547.565    -195.720      15.526
  H      548.451    -198.136      17.859
  H      550.057    -198.943      15.628
  H      550.648    -196.658      15.116
  H      550.908    -196.244      18.132
  H      544.450    -199.464      13.179
  H      551.759    -194.311      17.118
  H      544.225    -197.767      12.847
  H      550.692    -194.403      15.728
  P      553.201    -196.709      14.906
  C      553.769    -199.145      14.228
  O      553.183    -197.914      13.854
  O      554.704    -196.722      15.460
  O      552.842    -195.366      14.354
  H      555.221    -196.017      15.027
  H      553.400    -199.927      13.557
  H      553.510    -199.414      15.256
  H      554.853    -199.080      14.131
  H      552.893    -192.072      19.761
  H      551.537    -193.173      19.784
  H      551.279    -191.464      20.038

 3  4  5  6  7  8  9  10  11  12  13  23  27  28  29  30  32 0
 6-311+G(2d,p)
 ****
 34  35 0
 6-311+G(2d,p)
 ****
 1  2  14  15  16  17  18  19  20  21  22  24  25  26 0
 3-21G
 ****
 31  33  36  37  38  39  40  41  42  43  44  45  46 0
 3-21G
 ****


