%nproc=1
%NoSave
%Mem=1900MB
#P OB98/GEN NMR

erre ene a

0 1
  C     -153.822    1048.408    -780.725
  O     -154.615    1047.345    -780.258
  H     -153.442    1048.978    -779.872
  H     -154.430    1049.078    -781.350
  H     -152.970    1048.038    -781.312
  P     -154.949    1046.162    -781.288
  C     -153.136    1044.636    -780.218
  O     -153.623    1045.266    -781.401
  C     -151.701    1044.150    -780.419
  O     -150.953    1045.197    -781.109
  C     -150.948    1043.823    -779.111
  O     -150.099    1042.699    -779.336
  C     -150.082    1045.057    -778.915
  O     -148.944    1044.778    -778.089
  C     -149.740    1045.401    -780.358
  N     -148.269    1048.866    -783.693
  C     -148.918    1047.656    -783.880
  N     -149.152    1047.277    -785.151
  N     -149.283    1046.881    -782.891
  C     -148.998    1047.388    -781.676
  C     -148.361    1048.558    -781.349
  C     -147.939    1049.408    -782.448
  O     -147.350    1050.476    -782.353
  N     -148.214    1048.690    -779.994
  C     -148.742    1047.578    -779.486
  N     -149.238    1046.748    -780.476
  O     -155.006    1046.928    -782.697
  O     -156.213    1045.405    -781.016
  H     -149.261    1044.660    -777.171
  H     -155.932    1047.164    -782.905
  H     -147.982    1049.420    -784.488
  H     -148.776    1047.306    -778.438
  H     -148.960    1044.740    -780.778
  H     -150.666    1045.856    -778.444
  H     -148.927    1047.831    -785.961
  H     -151.619    1043.620    -778.261
  H     -149.669    1046.409    -785.302
  H     -151.711    1043.283    -781.090
  H     -153.778    1043.775    -779.984
  H     -153.191    1045.342    -779.386
  P     -150.738    1041.224    -779.192
  C     -150.472    1040.671    -781.728
  O     -151.344    1040.797    -780.611
  O     -152.025    1041.487    -778.288
  O     -149.811    1040.235    -778.558
  H     -152.189    1040.720    -777.717
  H     -151.036    1040.381    -782.590
  H     -149.731    1039.928    -781.520
  H     -149.993    1041.610    -781.914

 6  7  8  9  10  11  12  13  14  15  26  29  33  34 0
 6-311+G(2d,p)
 ****
 36  38  39  40  41 0
 6-311+G(2d,p)
 ****
 1  2  3  4  5  16  17  18  19  20  21  22  23  24  25 0
 3-21G
 ****
 27  28  30  31  32  35  37  42  43  44  45  46  47 0
 3-21G
 ****
 48  49 0
 3-21G
 ****


