%nproc=1
%NoSave
%Mem=1900MB
#P OB98/GEN NMR

erre ene a

0 1
  C     -433.850    -140.389    -556.647
  O     -433.820    -140.719    -558.025
  H     -433.966    -139.311    -556.520
  H     -434.703    -140.890    -556.188
  H     -432.931    -140.716    -556.155
  P     -432.635    -140.081    -558.896
  C     -433.542    -137.659    -558.694
  O     -433.235    -138.734    -559.553
  C     -434.147    -136.512    -559.519
  O     -433.231    -136.100    -560.566
  C     -435.465    -136.879    -560.224
  O     -436.570    -136.793    -559.364
  C     -435.496    -135.777    -561.284
  O     -435.935    -134.538    -560.688
  C     -434.020    -135.688    -561.713
  N     -432.231    -135.740    -566.510
  C     -432.489    -134.750    -565.637
  N     -432.970    -134.800    -564.385
  C     -433.205    -136.074    -564.038
  C     -433.012    -137.209    -564.798
  C     -432.489    -137.006    -566.115
  N     -432.241    -138.039    -566.997
  N     -433.389    -138.340    -564.121
  C     -433.776    -137.902    -562.936
  N     -433.694    -136.537    -562.849
  O     -432.513    -141.076    -560.137
  O     -431.328    -139.897    -558.181
  H     -436.850    -134.669    -560.411
  H     -431.626    -140.975    -560.566
  H     -432.254    -133.730    -566.023
  H     -434.136    -138.530    -562.120
  H     -433.713    -134.663    -561.967
  H     -436.190    -136.005    -562.099
  H     -435.393    -137.854    -560.717
  H     -434.305    -135.655    -558.834
  H     -432.626    -137.302    -558.201
  H     -432.060    -137.776    -567.945
  H     -432.596    -138.953    -566.739
  H     -434.254    -137.994    -557.926
  P     -437.521    -138.094    -559.266
  C     -438.875    -137.418    -561.370
  O     -438.903    -137.712    -559.968
  O     -437.895    -138.152    -557.694
  O     -436.867    -139.367    -559.728
  H     -438.097    -139.063    -557.407
  H     -439.863    -137.181    -561.704
  H     -438.512    -138.270    -561.906
  H     -438.229    -136.584    -561.547

 6  7  8  9  10  11  12  13  14  15  25  28  32  33  34  35 0
 6-311+G(2d,p)
 ****
 36  39  40 0
 6-311+G(2d,p)
 ****
 1  2  3  4  5  16  17  18  19  20  21  22  23  24 0
 3-21G
 ****
 26  27  29  30  31  37  38  41  42  43  44  45  46  47 0
 3-21G
 ****
 48 0
 3-21G
 ****


