%nproc=1
%NoSave
%Mem=1900MB
#P OB98/GEN NMR

erre ene a

0 1
  C      674.326     925.974    -359.308
  O      674.622     924.855    -360.166
  P      674.812     923.445    -359.458
  C      672.387     922.827    -360.218
  O      673.339     922.822    -359.160
  C      672.187     921.401    -360.731
  O      673.318     920.928    -361.498
  C      672.020     920.357    -359.618
  O      670.734     920.454    -359.022
  C      672.287     919.076    -360.379
  O      671.115     918.679    -361.116
  C      673.396     919.511    -361.355
  N      677.432     916.446    -362.231
  C      676.241     916.587    -362.861
  N      675.216     917.415    -362.568
  C      675.520     918.183    -361.492
  C      676.689     918.172    -360.766
  C      677.682     917.242    -361.160
  N      678.890     917.108    -360.509
  N      676.631     919.100    -359.748
  C      675.450     919.656    -359.846
  N      674.739     919.139    -360.901
  O      675.360     923.805    -357.998
  O      675.741     922.523    -360.169
  H      671.384     917.944    -361.700
  H      676.304     923.576    -357.927
  H      676.092     915.933    -363.709
  H      675.045     920.407    -359.181
  H      673.265     919.059    -362.366
  H      672.579     918.234    -359.713
  H      672.797     920.522    -358.840
  H      671.295     921.386    -361.374
  H      672.725     923.470    -361.034
  H      679.509     916.383    -360.809
  H      679.054     917.647    -359.659
  H      671.453     923.251    -359.849
  P      670.654     921.056    -357.533
  C      668.677     922.497    -358.291
  O      669.963     922.495    -357.726
  O      672.187     921.422    -357.239
  O      669.998     920.156    -356.534
  H      672.594     921.899    -357.991
  H      668.308     923.538    -358.344
  H      667.983     921.909    -357.673
  H      668.706     922.096    -359.313
  H      674.222     926.859    -359.900
  H      675.123     926.106    -358.606
  H      673.414     925.788    -358.781

 3  4  5  6  7  8  9  10  11  12  22  25  29  30  31  32 0
 6-311+G(2d,p)
 ****
 33  36  37 0
 6-311+G(2d,p)
 ****
 1  2  13  14  15  16  17  18  19  20  21  23  24  26 0
 3-21G
 ****
 27  28  34  35  38  39  40  41  42  43  44  45  46  47  48 0
 3-21G
 ****


