%nproc=1
%NoSave
%Mem=1900MB
#P OB98/GEN NMR

erre ene a

0 1
  C     -230.473     769.902     608.313
  O     -229.998     769.584     609.609
  H     -229.625     770.192     607.689
  H     -231.171     770.740     608.371
  H     -230.964     769.034     607.863
  P     -231.052     768.912     610.608
  C     -230.372     766.452     610.002
  O     -231.387     767.444     610.034
  C     -230.993     765.062     610.089
  O     -231.851     764.959     611.248
  C     -231.909     764.714     608.932
  O     -231.203     764.454     607.739
  C     -232.623     763.490     609.493
  O     -231.854     762.295     609.293
  C     -232.725     763.829     610.997
  N     -234.091     764.097     611.401
  C     -234.809     762.982     611.856
  O     -234.266     761.882     611.915
  N     -236.127     763.143     612.192
  C     -236.691     764.304     612.058
  N     -238.011     764.391     612.385
  C     -235.969     765.503     611.581
  C     -234.689     765.330     611.274
  O     -232.391     769.737     610.303
  O     -230.645     768.916     612.044
  H     -232.402     761.556     609.633
  H     -232.597     769.812     609.359
  H     -236.481     766.452     611.504
  H     -234.085     766.153     610.911
  H     -232.341     763.001     611.607
  H     -233.591     763.331     609.013
  H     -232.658     765.505     608.788
  H     -230.177     764.330     610.192
  H     -238.478     763.533     612.654
  H     -229.657     766.604     610.817
  H     -238.569     765.220     612.248
  H     -229.825     766.566     609.061
  P     -231.650     765.107     606.345
  C     -229.468     766.469     606.208
  O     -230.891     766.521     606.232
  O     -233.123     765.185     606.119
  O     -230.869     764.221     605.266
  H     -229.898     764.232     605.351
  H     -229.076     767.462     606.131
  H     -229.146     765.893     605.366
  H     -229.112     766.014     607.109

 6  7  8  9  10  11  12  13  14  15  16  26  30  31  32  33  35 0
 6-311+G(2d,p)
 ****
 37  38 0
 6-311+G(2d,p)
 ****
 1  2  3  4  5  17  18  19  20  21  22  23  24  25 0
 3-21G
 ****
 27  28  29  34  36  39  40  41  42  43  44  45  46 0
 3-21G
 ****


