%nproc=1
%NoSave
%Mem=1900MB
#P OB98/GEN NMR

erre ene a

0 1
  C      -78.788     196.520    -228.836
  O      -78.079     197.522    -229.541
  H      -79.307     196.987    -227.995
  H      -78.090     195.774    -228.449
  H      -79.524     196.043    -229.488
  P      -77.387     197.079    -230.922
  C      -75.453     198.842    -230.690
  O      -76.566     198.362    -231.421
  C      -74.718     199.931    -231.473
  O      -74.279     199.376    -232.742
  C      -75.579     201.160    -231.774
  O      -74.747     202.319    -231.717
  C      -76.028     200.930    -233.208
  O      -76.389     202.147    -233.857
  C      -74.801     200.212    -233.795
  N      -75.126     199.436    -234.985
  C      -75.265     200.149    -236.186
  O      -75.119     201.372    -236.196
  N      -75.595     199.467    -237.327
  C      -75.837     198.197    -237.272
  N      -76.191     197.583    -238.434
  C      -75.757     197.411    -236.019
  C      -75.389     198.089    -234.935
  O      -78.642     197.021    -231.910
  O      -76.603     195.813    -230.840
  H      -76.607     201.949    -234.793
  H      -79.243     197.781    -231.820
  H      -75.979     196.353    -236.023
  H      -75.292     197.591    -233.976
  H      -74.022     200.942    -234.060
  H      -76.902     200.268    -233.228
  H      -76.413     201.271    -231.079
  H      -73.815     200.208    -230.918
  H      -76.258     198.162    -239.260
  H      -74.759     198.021    -230.468
  H      -76.458     196.612    -238.497
  H      -75.821     199.238    -229.736
  P      -75.364     203.712    -231.223
  C      -74.145     205.184    -232.971
  O      -74.351     204.902    -231.587
  O      -75.887     203.727    -229.826
  O      -76.567     203.954    -232.267
  H      -77.325     204.311    -231.765
  H      -73.452     205.993    -233.071
  H      -75.077     205.454    -233.422
  H      -73.752     204.316    -233.457

 6  7  8  9  10  11  12  13  14  15  16  26  30  31  32  33  35 0
 6-311+G(2d,p)
 ****
 37  38 0
 6-311+G(2d,p)
 ****
 1  2  3  4  5  17  18  19  20  21  22  23  24  25 0
 3-21G
 ****
 27  28  29  34  36  39  40  41  42  43  44  45  46 0
 3-21G
 ****


