%nproc=1
%NoSave
%Mem=1900MB
#P OB98/GEN NMR

erre ene a

0 1
  C     -166.044    -208.124    -668.521
  O     -166.925    -209.045    -667.903
  H     -165.443    -208.641    -669.274
  H     -166.635    -207.350    -669.017
  H     -165.394    -207.651    -667.783
  P     -166.282    -210.091    -666.869
  C     -165.285    -209.943    -664.475
  O     -165.875    -209.245    -665.564
  C     -164.695    -208.959    -663.467
  O     -163.660    -208.178    -664.131
  C     -165.715    -207.972    -662.873
  O     -165.406    -207.776    -661.488
  C     -165.434    -206.682    -663.630
  O     -165.821    -205.522    -662.903
  C     -163.932    -206.793    -663.858
  N     -162.646    -202.026    -665.088
  C     -162.750    -202.650    -663.895
  N     -163.047    -203.950    -663.656
  C     -163.176    -204.627    -664.812
  C     -163.094    -204.129    -666.101
  C     -162.831    -202.745    -666.222
  N     -162.789    -202.087    -667.427
  N     -163.347    -205.126    -667.023
  C     -163.599    -206.203    -666.306
  N     -163.518    -205.949    -664.963
  O     -164.871    -210.430    -667.553
  O     -167.088    -211.319    -666.611
  H     -166.765    -205.601    -662.657
  H     -164.984    -211.167    -668.180
  H     -162.585    -202.032    -663.018
  H     -163.882    -207.165    -666.698
  H     -163.348    -206.495    -662.977
  H     -165.978    -206.693    -664.583
  H     -166.758    -208.296    -662.976
  H     -164.204    -209.531    -662.669
  H     -164.484    -210.587    -664.855
  H     -162.703    -201.082    -667.404
  H     -163.034    -202.588    -668.268
  H     -166.043    -210.573    -663.997
  P     -165.658    -209.008    -660.492
  C     -164.230    -210.936    -659.476
  O     -164.342    -209.926    -660.475
  O     -166.725    -209.903    -661.281
  O     -166.169    -208.602    -659.149
  H     -167.323    -210.351    -660.655
  H     -163.303    -211.457    -659.598
  H     -165.042    -211.625    -659.573
  H     -164.260    -210.484    -658.507

 6  7  8  9  10  11  12  13  14  15  25  28  32  33  34  35 0
 6-311+G(2d,p)
 ****
 36  39  40 0
 6-311+G(2d,p)
 ****
 1  2  3  4  5  16  17  18  19  20  21  22  23  24 0
 3-21G
 ****
 26  27  29  30  31  37  38  41  42  43  44  45  46  47 0
 3-21G
 ****
 48 0
 3-21G
 ****


