%nproc=1
%NoSave
%Mem=1900MB
#P OB98/GEN NMR

erre ene a

0 1
  C     -280.548     -27.775     541.762
  O     -279.347     -28.505     541.932
  H     -281.374     -28.357     542.187
  H     -280.758     -27.607     540.703
  H     -280.486     -26.818     542.287
  P     -278.014     -27.934     541.252
  C     -278.165     -29.726     539.384
  O     -278.112     -28.334     539.703
  C     -278.567     -29.914     537.922
  O     -279.859     -29.327     537.681
  C     -277.610     -29.239     536.945
  O     -276.415     -29.979     536.806
  C     -278.484     -29.158     535.704
  O     -278.509     -30.407     535.007
  C     -279.863     -28.828     536.319
  N     -280.176     -27.403     536.283
  C     -280.270     -26.825     535.008
  O     -280.105     -27.509     534.002
  N     -280.535     -25.478     534.926
  C     -280.704     -24.777     536.000
  N     -280.961     -23.451     535.843
  C     -280.624     -25.352     537.360
  C     -280.358     -26.655     537.424
  O     -276.713     -28.303     541.901
  O     -278.247     -26.348     541.235
  H     -279.232     -30.336     534.356
  H     -277.910     -25.944     542.056
  H     -280.782     -24.722     538.233
  H     -280.282     -27.156     538.386
  H     -280.656     -29.370     535.785
  H     -278.117     -28.400     535.012
  H     -277.394     -28.208     537.277
  H     -278.639     -30.992     537.720
  H     -280.990     -23.097     534.895
  H     -278.910     -30.182     540.042
  H     -281.197     -22.826     536.602
  H     -277.193     -30.202     539.574
  P     -275.009     -29.363     537.267
  C     -274.070     -28.683     534.960
  O     -274.664     -28.231     536.181
  O     -273.925     -30.354     537.527
  O     -275.401     -28.500     538.571
  H     -275.589     -29.076     539.348
  H     -273.887     -27.845     534.321
  H     -274.734     -29.366     534.472
  H     -273.145     -29.176     535.175

 6  7  8  9  10  11  12  13  14  15  16  26  30  31  32  33  35 0
 6-311+G(2d,p)
 ****
 37  38 0
 6-311+G(2d,p)
 ****
 1  2  3  4  5  17  18  19  20  21  22  23  24  25 0
 3-21G
 ****
 27  28  29  34  36  39  40  41  42  43  44  45  46 0
 3-21G
 ****


