%nproc=1
%NoSave
%Mem=1900MB
#P OB98/GEN NMR

erre ene a

0 1
  C      -10.081      31.656      24.173
  O       -8.969      31.527      25.059
  P       -8.921      32.425      26.385
  C       -7.717      34.576      25.634
  O       -8.962      33.974      25.960
  C       -7.747      36.082      25.927
  O       -8.426      36.799      24.856
  C       -8.488      36.413      27.229
  O       -7.902      37.561      27.864
  C       -9.868      36.807      26.742
  O      -10.564      37.592      27.706
  C       -9.514      37.537      25.448
  N      -12.596      40.727      22.891
  C      -11.517      40.954      23.673
  N      -10.733      40.055      24.301
  C      -11.148      38.803      24.048
  C      -12.224      38.417      23.264
  C      -12.975      39.447      22.673
  N      -14.091      39.217      21.901
  N      -12.348      37.043      23.241
  C      -11.392      36.610      24.037
  N      -10.621      37.631      24.521
  O       -7.859      32.071      27.369
  O      -10.380      32.205      27.013
  H      -11.423      37.839      27.318
  H      -10.298      32.102      27.982
  H      -11.253      41.998      23.815
  H      -11.225      35.577      24.305
  H       -9.155      38.555      25.642
  H      -10.461      35.907      26.540
  H       -8.524      35.593      27.953
  H       -6.719      36.459      25.962
  H       -7.491      34.406      24.580
  H      -14.632      40.019      21.616
  H      -14.468      38.281      21.854
  H       -6.920      34.077      26.196
  P       -6.852      37.255      29.046
  C       -8.633      37.403      30.954
  O       -7.711      36.615      30.236
  O       -6.000      38.427      29.403
  O       -6.029      36.022      28.443
  H       -6.575      35.295      28.101
  H       -9.201      36.756      31.626
  H       -9.332      37.899      30.276
  H       -8.103      38.150      31.551
  H       -9.956      30.990      23.345
  H      -10.138      32.663      23.816
  H      -10.983      31.411      24.694

 3  4  5  6  7  8  9  10  11  12  22  25  29  30  31  32 0
 6-311+G(2d,p)
 ****
 33  36  37 0
 6-311+G(2d,p)
 ****
 1  2  13  14  15  16  17  18  19  20  21  23  24  26 0
 3-21G
 ****
 27  28  34  35  38  39  40  41  42  43  44  45  46  47  48 0
 3-21G
 ****


