%nproc=1
%NoSave
%Mem=1900MB
#P OB98/GEN NMR

erre ene a

0 1
  C     -934.888    -798.591    -993.315
  O     -935.693    -798.305    -992.160
  P     -937.200    -797.815    -992.406
  C     -938.211    -800.178    -991.988
  O     -938.195    -798.807    -991.607
  C     -938.640    -801.053    -990.801
  O     -937.586    -801.162    -989.821
  C     -939.850    -800.492    -990.025
  O     -941.086    -800.826    -990.645
  C     -939.706    -801.230    -988.696
  O     -940.223    -802.577    -988.832
  C     -938.176    -801.264    -988.503
  N     -936.640    -800.023    -983.798
  C     -937.136    -801.178    -984.302
  N     -937.538    -801.432    -985.573
  C     -937.389    -800.334    -986.335
  C     -936.899    -799.084    -985.941
  C     -936.520    -798.958    -984.597
  N     -935.998    -797.777    -984.095
  N     -936.877    -798.219    -987.022
  C     -937.334    -798.918    -988.024
  N     -937.657    -800.197    -987.664
  O     -937.470    -798.190    -993.941
  O     -937.418    -796.359    -992.153
  H     -941.200    -802.522    -988.838
  H     -938.044    -797.529    -994.349
  H     -937.233    -801.998    -983.604
  H     -937.464    -798.566    -989.043
  H     -937.846    -802.223    -988.067
  H     -940.266    -800.760    -987.884
  H     -939.749    -799.414    -989.869
  H     -938.889    -802.045    -991.168
  H     -937.258    -800.497    -992.343
  H     -935.701    -797.754    -983.127
  H     -935.872    -796.986    -984.705
  H     -938.939    -800.288    -992.825
  P     -942.383    -799.994    -990.234
  C     -942.817    -798.953    -992.543
  O     -943.254    -799.837    -991.552
  O     -941.813    -798.538    -989.968
  O     -943.094    -800.522    -989.032
  H     -942.324    -798.055    -989.281
  H     -943.351    -799.178    -993.508
  H     -941.743    -799.050    -992.743
  H     -943.046    -797.913    -992.266
  H     -933.914    -798.905    -993.002
  H     -934.803    -797.711    -993.917
  H     -935.348    -799.371    -993.886

 3  4  5  6  7  8  9  10  11  12  22  25  29  30  31  32 0
 6-311+G(2d,p)
 ****
 33  36  37 0
 6-311+G(2d,p)
 ****
 1  2  13  14  15  16  17  18  19  20  21  23  24  26 0
 3-21G
 ****
 27  28  34  35  38  39  40  41  42  43  44  45  46  47  48 0
 3-21G
 ****


