%nproc=1
%NoSave
%Mem=1900MB
#P OB98/GEN NMR

erre ene a

0 1
  C      -48.406     181.333      95.659
  O      -48.210     179.957      95.972
  P      -49.184     178.874      95.308
  C      -49.625     178.438      92.735
  O      -48.722     178.575      93.810
  C      -48.859     177.982      91.483
  O      -47.773     178.892      91.201
  C      -48.249     176.590      91.623
  O      -49.166     175.570      91.272
  C      -47.054     176.677      90.696
  O      -47.472     176.540      89.325
  C      -46.563     178.118      90.969
  N      -45.639     178.335      92.104
  C      -44.282     178.535      91.864
  O      -43.770     178.541      90.748
  N      -43.500     178.746      92.970
  C      -43.943     178.947      94.244
  O      -43.202     179.191      95.186
  C      -45.397     178.874      94.421
  C      -46.162     178.567      93.370
  O      -50.564     179.661      95.133
  O      -49.352     177.621      96.111
  H      -46.694     176.717      88.767
  H      -51.257     179.261      95.691
  H      -42.506     178.821      92.822
  H      -45.797     179.074      95.407
  H      -47.241     178.510      93.491
  H      -46.072     178.533      90.082
  H      -46.352     175.867      90.879
  H      -47.874     176.442      92.641
  H      -49.548     178.001      90.629
  H      -50.139     179.381      92.535
  H      -50.397     177.706      92.994
  P      -49.654     174.519      92.378
  C      -51.135     174.787      94.455
  O      -50.879     175.229      93.136
  O      -48.591     173.954      93.257
  O      -50.391     173.385      91.517
  H      -49.779     172.634      91.335
  H      -51.877     175.450      94.908
  H      -50.220     174.819      95.052
  H      -51.533     173.770      94.436
  H      -47.680     181.924      96.178
  H      -49.389     181.631      95.959
  H      -48.296     181.478      94.605

 3  4  5  6  7  8  9  10  11  12  13  23  28  29  30  31  32 0
 6-311+G(2d,p)
 ****
 33  34 0
 6-311+G(2d,p)
 ****
 1  2  14  15  16  17  18  19  20  21  22  24  25  26  27 0
 3-21G
 ****
 35  36  37  38  39  40  41  42  43  44  45 0
 3-21G
 ****


