%nproc=1
%NoSave
%Mem=1900MB
#P OB98/GEN NMR

erre ene a

0 1
  C      656.080     288.849    -178.178
  O      657.043     287.819    -178.270
  H      655.123     288.467    -178.551
  H      656.377     289.704    -178.798
  H      655.951     289.149    -177.141
  P      658.535     288.187    -177.811
  C      659.347     288.377    -180.266
  O      659.131     289.048    -179.027
  C      660.105     289.271    -181.238
  O      659.302     290.422    -181.594
  C      661.414     289.830    -180.693
  O      662.464     288.883    -180.845
  C      661.621     291.034    -181.596
  O      662.198     290.605    -182.853
  C      660.189     291.549    -181.819
  N      659.888     296.639    -181.309
  C      660.514     295.880    -182.214
  N      660.597     294.521    -182.266
  C      659.926     293.973    -181.227
  C      659.237     294.630    -180.222
  C      659.223     296.040    -180.291
  N      658.576     296.825    -179.354
  N      658.679     293.738    -179.346
  C      658.987     292.548    -179.841
  N      659.767     292.639    -180.965
  O      659.370     287.044    -177.342
  O      658.241     289.310    -176.701
  H      662.217     291.392    -183.431
  H      657.524     289.897    -177.000
  H      661.023     296.408    -183.014
  H      658.633     291.608    -179.441
  H      660.026     291.882    -182.856
  H      662.307     291.774    -181.166
  H      661.308     290.173    -179.652
  H      660.278     288.695    -182.166
  H      658.388     288.083    -180.706
  H      658.782     297.815    -179.366
  H      658.206     296.367    -178.534
  H      659.919     287.472    -180.059
  P      663.574     288.681    -179.699
  C      665.146     290.289    -180.953
  O      664.460     290.018    -179.744
  O      664.332     287.406    -179.797
  O      662.755     288.823    -178.327
  H      663.277     288.458    -177.597
  H      665.696     291.201    -180.854
  H      664.439     290.383    -181.751
  H      665.821     289.487    -181.167

 6  7  8  9  10  11  12  13  14  15  25  28  32  33  34  35 0
 6-311+G(2d,p)
 ****
 36  39  40 0
 6-311+G(2d,p)
 ****
 1  2  3  4  5  16  17  18  19  20  21  22  23  24 0
 3-21G
 ****
 26  27  29  30  31  37  38  41  42  43  44  45  46  47 0
 3-21G
 ****
 48 0
 3-21G
 ****


