%nproc=1
%NoSave
%Mem=1900MB
#P OB98/GEN NMR

erre ene a

0 1
  C       93.949      94.684     -15.584
  O       92.715      94.072     -15.269
  H       94.675      93.904     -15.826
  H       94.317      95.250     -14.726
  H       93.846      95.345     -16.449
  P       91.420      94.997     -15.074
  C       92.111      95.745     -12.704
  O       91.827      96.150     -14.038
  C       91.498      96.735     -11.718
  O       92.159      98.014     -11.821
  C       90.018      97.012     -11.956
  O       89.222      95.936     -11.498
  C       89.847      98.312     -11.183
  O       89.709      98.057      -9.778
  C       91.185      99.029     -11.486
  N       91.077     100.023     -12.553
  C       90.696     101.304     -12.168
  O       90.421     101.603     -11.007
  N       90.625     102.233     -13.173
  C       90.809     101.988     -14.503
  O       90.680     102.846     -15.371
  C       91.174     100.609     -14.855
  C       91.290      99.704     -13.880
  O       90.152      94.281     -14.749
  O       91.311      95.787     -16.464
  H       89.538      98.920      -9.353
  H       90.631      95.371     -17.025
  H       90.339     103.164     -12.915
  H       91.324     100.377     -15.901
  H       91.553      98.680     -14.121
  H       91.557      99.533     -10.586
  H       88.962      98.870     -11.490
  H       89.835      97.209     -13.019
  H       91.664      96.352     -10.703
  H       93.199      95.719     -12.569
  H       91.708      94.740     -12.547
  P       87.985      95.407     -12.363
  C       86.242      96.422     -10.785
  O       86.755      96.409     -12.111
  O       87.656      93.962     -12.187
  O       88.407      95.724     -13.874
  H       88.655      94.895     -14.329
  H       85.431      97.117     -10.723
  H       87.015      96.715     -10.106
  H       85.893      95.444     -10.528

 6  7  8  9  10  11  12  13  14  15  16  26  31  32  33  34  35 0
 6-311+G(2d,p)
 ****
 36  37 0
 6-311+G(2d,p)
 ****
 1  2  3  4  5  17  18  19  20  21  22  23  24  25 0
 3-21G
 ****
 27  28  29  30  38  39  40  41  42  43  44  45 0
 3-21G
 ****


