%nproc=1
%NoSave
%Mem=1900MB
#P OB98/GEN NMR

erre ene a

0 1
  C      311.739    -193.577     338.490
  O      311.164    -194.412     339.478
  H      311.263    -192.598     338.535
  H      311.579    -194.006     337.499
  H      312.812    -193.458     338.671
  P      311.766    -195.894     339.600
  C      311.092    -198.218     338.628
  O      310.845    -196.819     338.667
  C      310.173    -198.890     337.601
  O      308.810    -198.877     338.115
  C      310.140    -198.171     336.238
  O      309.886    -199.143     335.213
  C      308.923    -197.275     336.390
  O      308.493    -196.810     335.132
  C      307.990    -198.231     337.118
  N      303.656    -195.699     336.211
  C      304.527    -196.326     335.387
  N      305.657    -196.987     335.712
  C      305.840    -196.985     337.042
  C      305.041    -196.391     338.001
  C      303.904    -195.714     337.541
  N      303.025    -195.054     338.371
  N      305.574    -196.590     339.266
  C      306.670    -197.298     339.065
  N      306.867    -197.566     337.737
  O      311.361    -196.330     341.086
  O      313.230    -196.021     339.361
  H      307.705    -196.239     335.218
  H      312.083    -196.121     341.704
  H      304.283    -196.288     334.327
  H      307.353    -197.634     339.833
  H      307.588    -199.010     336.459
  H      309.155    -196.397     337.005
  H      311.064    -197.630     336.013
  H      310.461    -199.940     337.489
  H      310.904    -198.631     339.624
  H      312.135    -198.397     338.353
  H      302.247    -194.568     337.958
  H      303.212    -195.024     339.367
  P      311.012    -199.414     334.094
  C      311.742    -198.464     331.777
  O      310.836    -198.390     332.869
  O      310.523    -200.800     333.452
  O      312.408    -199.553     334.615
  H      311.279    -201.404     333.363
  H      311.488    -197.719     331.052
  H      311.681    -199.434     331.328
  H      312.738    -198.295     332.128

 6  7  8  9  10  11  12  13  14  15  25  28  32  33  34  35 0
 6-311+G(2d,p)
 ****
 36  37  40 0
 6-311+G(2d,p)
 ****
 1  2  3  4  5  16  17  18  19  20  21  22  23  24 0
 3-21G
 ****
 26  27  29  30  31  38  39 41  42  43  44  45  46  47  48 0
 3-21G
 ****


