%nproc=1
%NoSave
%Mem=1900MB
#P OB98/GEN NMR

erre ene a

0 1
  C       90.254    -165.955      -8.146
  O       90.307    -166.238      -6.743
  P       88.916    -166.654      -6.054
  C       88.762    -164.179      -5.292
  O       88.069    -165.312      -5.800
  C       88.087    -163.625      -4.032
  O       86.771    -163.079      -4.342
  C       87.885    -164.674      -2.928
  O       88.038    -164.000      -1.670
  C       86.427    -165.064      -3.102
  O       85.909    -165.696      -1.933
  C       85.827    -163.700      -3.438
  N       81.212    -161.647      -3.479
  C       82.294    -161.383      -2.662
  N       82.141    -160.394      -1.754
  N       83.430    -162.034      -2.727
  C       83.448    -162.970      -3.711
  C       82.448    -163.311      -4.594
  C       81.189    -162.605      -4.486
  O       80.201    -162.795      -5.188
  N       82.861    -164.297      -5.470
  C       84.087    -164.582      -5.062
  N       84.509    -163.774      -4.038
  O       89.360    -167.112      -4.586
  O       88.186    -167.740      -6.778
  H       84.960    -165.886      -2.095
  H       89.398    -168.087      -4.535
  H       80.356    -161.126      -3.369
  H       84.719    -165.348      -5.486
  H       85.727    -163.061      -2.551
  H       86.316    -165.759      -3.946
  H       81.316    -159.816      -1.682
  H       88.563    -165.532      -2.986
  H       82.937    -160.150      -1.168
  H       88.704    -162.801      -3.645
  H       88.798    -163.392      -6.050
  H       89.804    -164.457      -5.091
  P       89.491    -163.997      -0.993
  C       89.654    -166.581      -1.076
  O       90.226    -165.344      -1.449
  O       89.171    -164.251       0.555
  O       90.265    -162.728      -1.179
  H       89.771    -163.713       1.109
  H       89.955    -167.341      -1.801
  H       88.558    -166.532      -1.053
  H       90.020    -166.871      -0.088
  H       91.231    -165.691      -8.494
  H       89.582    -165.141      -8.321
  H       89.910    -166.821      -8.672

 3  4  5  6  7  8  9  10  11  12  23  26  30  31 0
 6-311+G(2d,p)
 ****
 33  35  36  37  38 0
 6-311+G(2d,p)
 ****
 1  2  13  14  15  16  17  18  19  20  21  22  24  25 0
 3-21G
 ****
 27  28  29  32  34  39  40  41  42  43  44  45  46  47  48  49 0
 3-21G
 ****


