%nproc=1
%NoSave
%Mem=1900MB
#P OB98/GEN NMR

erre ene a

0 1
  C     -158.489    -289.081    -112.039
  O     -158.648    -287.668    -112.009
  P     -157.399    -286.793    -111.499
  C     -158.428    -286.752    -109.116
  O     -157.298    -287.074    -109.922
  C     -158.173    -287.134    -107.662
  O     -157.946    -288.556    -107.566
  C     -156.945    -286.484    -107.040
  O     -157.212    -285.156    -106.608
  C     -156.693    -287.406    -105.857
  O     -157.561    -287.043    -104.767
  C     -157.088    -288.783    -106.418
  N     -153.677    -292.245    -104.993
  C     -154.708    -291.672    -104.279
  N     -154.868    -292.097    -103.007
  N     -155.506    -290.757    -104.761
  C     -155.253    -290.455    -106.058
  C     -154.261    -290.952    -106.874
  C     -153.350    -291.931    -106.309
  O     -152.381    -292.422    -106.876
  N     -154.333    -290.415    -108.129
  C     -155.382    -289.619    -108.091
  N     -155.958    -289.587    -106.839
  O     -157.957    -285.294    -111.572
  O     -156.145    -286.962    -112.288
  H     -157.386    -287.666    -104.038
  H     -157.213    -284.669    -111.674
  H     -153.102    -292.958    -104.580
  H     -155.758    -289.057    -108.930
  H     -157.672    -289.358    -105.692
  H     -155.666    -287.347    -105.481
  H     -154.372    -292.894    -102.623
  H     -156.091    -286.522    -107.724
  H     -155.642    -291.719    -102.478
  H     -159.073    -286.901    -107.083
  H     -159.297    -287.304    -109.482
  H     -158.628    -285.680    -109.200
  P     -156.049    -284.075    -106.854
  C     -155.141    -284.645    -104.484
  O     -154.861    -284.504    -105.866
  O     -156.645    -282.745    -106.192
  O     -155.679    -283.881    -108.285
  H     -156.248    -281.954    -106.611
  H     -156.142    -285.057    -104.320
  H     -155.061    -283.668    -103.999
  H     -154.407    -285.325    -104.043
  H     -159.390    -289.534    -112.396
  H     -158.277    -289.437    -111.052
  H     -157.680    -289.335    -112.691

 3  4  5  6  7  8  9  10  11  12  23  26  30  31  33  0
 6-311+G(2d,p)
 ****
 35  36  37  38 0
 6-311+G(2d,p)
 ****
 1  2  13  14  15  16  17  18  19  20  21  22  24  25  27  28  29 0
 3-21G
 ****
 32  34  39  40  41  42  43  44  45  46  47  48  49 0
 3-21G
 ****


