%nproc=1
%NoSave
%Mem=1900MB
#P OB98/GEN NMR

erre ene a

0 1
  C       88.765     308.046      34.410
  O       88.469     309.380      34.042
  H       88.767     307.953      35.499
  H       87.990     307.391      33.999
  H       89.734     307.741      34.006
  P       89.577     310.487      34.395
  C       87.676     311.837      35.550
  O       88.764     311.854      34.635
  C       86.434     312.464      34.916
  O       86.752     313.822      34.510
  C       85.935     311.714      33.677
  O       84.506     311.718      33.679
  C       86.453     312.550      32.522
  O       85.675     312.389      31.343
  C       86.397     313.954      33.119
  N       87.390     316.349      28.719
  C       86.348     315.592      29.117
  N       86.159     314.996      30.313
  C       87.170     315.286      31.155
  C       88.297     316.043      30.890
  C       88.399     316.584      29.596
  N       89.474     317.325      29.168
  N       89.122     316.081      31.998
  C       88.502     315.362      32.912
  N       87.316     314.860      32.448
  O       90.290     310.717      32.979
  O       90.549     310.115      35.461
  H       86.121     312.863      30.609
  H       90.933     310.000      32.816
  H       85.564     315.439      28.377
  H       88.865     315.173      33.914
  H       85.400     314.400      33.054
  H       87.487     312.263      32.291
  H       86.296     310.684      33.631
  H       85.651     312.537      35.681
  H       87.956     312.402      36.444
  H       89.494     317.624      28.205
  H       90.257     317.456      29.787
  H       87.461     310.800      35.836
  P       83.777     310.316      33.383
  C       82.619     310.996      31.165
  O       82.451     310.599      32.521
  O       83.213     309.883      34.818
  O       84.692     309.277      32.822
  H       83.463     308.961      35.013
  H       81.660     311.149      30.717
  H       83.144     310.231      30.632
  H       83.180     311.906      31.127

 6  7  8  9  10  11  12  13  14  15  25  28  32  33  34  35 0
 6-311+G(2d,p)
 ****
 36  39  40 0
 6-311+G(2d,p)
 ****
 1  2  3  4  5  16  17  18  19  20  21  22  23  24 0
 3-21G
 ****
 26  27  29  30  31  37  38  41  42  43  44  45  46  47 0
 3-21G
 ****
 48 0
 3-21G
 ****


