%nproc=1
%NoSave
%Mem=1900MB
#P OB98/GEN NMR

erre ene a

0 1
  C     -274.848    -519.668    -134.996
  O     -276.252    -519.653    -135.179
  H     -274.609    -519.078    -134.107
  H     -274.361    -519.212    -135.861
  H     -274.480    -520.684    -134.857
  P     -276.904    -520.690    -136.213
  C     -276.264    -522.894    -135.023
  O     -276.040    -522.041    -136.138
  C     -277.036    -524.151    -135.445
  O     -276.179    -524.969    -136.277
  C     -277.430    -525.001    -134.233
  O     -278.614    -525.759    -134.471
  C     -276.252    -525.953    -134.092
  O     -276.581    -527.150    -133.386
  C     -275.869    -526.177    -135.551
  N     -272.290    -529.801    -135.340
  C     -273.593    -529.833    -134.874
  N     -273.987    -530.981    -134.271
  N     -274.415    -528.822    -134.967
  C     -273.857    -527.716    -135.518
  C     -272.577    -527.563    -136.000
  C     -271.685    -528.698    -135.923
  O     -270.514    -528.718    -136.304
  N     -272.377    -526.288    -136.483
  C     -273.536    -525.684    -136.295
  N     -274.470    -526.515    -135.735
  O     -276.499    -520.098    -137.648
  O     -278.387    -520.875    -136.092
  H     -277.285    -527.599    -133.888
  H     -277.109    -520.428    -138.331
  H     -271.706    -530.619    -135.271
  H     -273.741    -524.649    -136.558
  H     -276.462    -526.988    -135.988
  H     -275.469    -525.446    -133.520
  H     -273.330    -531.701    -134.013
  H     -277.565    -524.410    -133.327
  H     -274.810    -530.910    -133.661
  H     -277.903    -523.863    -136.061
  H     -276.840    -522.318    -134.292
  H     -275.316    -523.163    -134.553
  P     -280.038    -525.040    -134.283
  C     -280.911    -525.142    -136.782
  O     -280.496    -524.386    -135.664
  O     -279.709    -523.786    -133.355
  O     -281.099    -525.921    -133.685
  H     -280.159    -523.872    -132.494
  H     -281.167    -524.482    -137.584
  H     -281.765    -525.730    -136.518
  H     -280.115    -525.787    -137.092

 6  7  8  9  10  11  12  13  14  15  26  29  33  34 0
 6-311+G(2d,p)
 ****
 36  38  39  40  41 0
 6-311+G(2d,p)
 ****
 1  2  3  4  5  16  17  18  19  20  21  22  23  24  25 0
 3-21G
 ****
 27  28  30  31  32  35  37  42  43  44  45  46  47 0
 3-21G
 ****
 48  49 0
 3-21G
 ****


