%nproc=1
%NoSave
%Mem=1900MB
#P OB98/GEN NMR

erre ene a

0 1
  C     -197.256    -274.050    -212.534
  O     -196.887    -275.233    -213.262
  P     -197.083    -276.672    -212.570
  C     -194.696    -276.780    -211.500
  O     -196.104    -276.771    -211.302
  C     -193.975    -276.694    -210.150
  O     -194.375    -277.785    -209.292
  C     -192.460    -276.795    -210.242
  O     -191.873    -275.586    -210.690
  C     -192.096    -277.150    -208.805
  O     -192.037    -275.971    -207.984
  C     -193.280    -278.046    -208.390
  N     -192.929    -279.463    -208.367
  C     -191.927    -279.837    -207.475
  O     -191.309    -279.033    -206.780
  N     -191.628    -281.174    -207.440
  C     -192.177    -282.141    -208.233
  O     -191.855    -283.321    -208.167
  C     -193.172    -281.671    -209.212
  C     -193.490    -280.376    -209.235
  O     -196.364    -277.646    -213.623
  O     -198.497    -277.094    -212.342
  H     -191.819    -276.271    -207.079
  H     -196.765    -278.534    -213.574
  H     -190.927    -281.471    -206.779
  H     -193.613    -282.402    -209.877
  H     -194.225    -280.012    -209.950
  H     -193.637    -277.758    -207.393
  H     -191.119    -277.640    -208.730
  H     -192.179    -277.629    -210.898
  H     -194.271    -275.754    -209.666
  H     -194.413    -275.921    -212.112
  H     -194.420    -277.697    -212.030
  P     -191.358    -275.554    -212.212
  C     -189.052    -276.751    -211.911
  O     -190.390    -276.824    -212.355
  O     -190.380    -274.286    -212.176
  O     -192.469    -275.455    -213.205
  H     -189.935    -274.190    -211.316
  H     -188.953    -276.103    -211.037
  H     -188.423    -276.373    -212.721
  H     -188.718    -277.759    -211.641
  H     -197.062    -273.186    -213.135
  H     -196.683    -273.993    -211.632
  H     -198.298    -274.090    -212.292

 3  4  5  6  7  8  9  10  11  12  13  23  28  29  30  31  32 0
 6-311+G(2d,p)
 ****
 33  34 0
 6-311+G(2d,p)
 ****
 1  2  14  15  16  17  18  19  20  21  22  24  25  26 0
 3-21G
 ****
 27  35  36  37  38  39  40  41  42  43  44  45 0
 3-21G
 ****


