%nproc=1
%NoSave
%Mem=1900MB
#P OB98/GEN NMR

erre ene a

0 1
  C       76.851     120.614      91.351
  O       75.893     121.564      91.763
  H       77.848     120.991      91.593
  H       76.789     120.470      90.270
  H       76.706     119.658      91.862
  P       74.345     121.151      91.785
  C       73.887     122.092      89.427
  O       73.922     120.937      90.253
  C       73.003     121.838      88.204
  O       73.758     121.020      87.258
  C       71.698     121.084      88.535
  O       70.668     121.550      87.656
  C       72.076     119.660      88.185
  O       70.946     118.852      87.975
  C       72.939     119.880      86.946
  N       73.730     118.695      86.626
  C       73.121     117.729      85.834
  O       71.971     117.820      85.409
  N       73.855     116.599      85.597
  C       75.063     116.301      86.154
  O       75.640     115.239      85.971
  C       75.635     117.339      87.028
  C       74.957     118.473      87.216
  O       73.440     122.047      92.562
  O       74.345     119.651      92.345
  H       70.361     119.262      87.311
  H       73.468     119.423      92.706
  H       73.431     115.893      85.015
  H       76.586     117.128      87.500
  H       75.339     119.250      87.867
  H       72.319     120.143      86.079
  H       72.660     119.214      88.997
  H       71.385     121.203      89.575
  H       72.794     122.792      87.707
  H       74.910     122.316      89.107
  H       73.500     122.940      90.001
  P       69.378     122.332      88.205
  C       68.132     120.263      89.080
  O       68.704     121.521      89.421
  O       68.410     122.740      87.141
  O       69.981     123.632      88.920
  H       69.463     124.414      88.649
  H       67.715     119.812      89.956
  H       68.890     119.624      88.676
  H       67.362     120.407      88.351

 6  7  8  9  10  11  12  13  14  15  16  26  31  32  33  34  35 0
 6-311+G(2d,p)
 ****
 36  37 0
 6-311+G(2d,p)
 ****
 1  2  3  4  5  17  18  19  20  21  22  23  24  25 0
 3-21G
 ****
 27  28  29  30  38  39  40  41  42  43  44  45 0
 3-21G
 ****


