%nproc=1
%NoSave
%Mem=1900MB
#P OB98/GEN NMR

erre ene a

0 1
  C      -69.722     234.416     210.652
  O      -68.724     233.777     211.462
  P      -67.188     234.087     211.077
  C      -67.187     236.164     212.640
  O      -66.542     234.945     212.268
  C      -66.662     236.711     213.972
  O      -66.876     235.718     215.010
  C      -65.167     237.056     213.979
  O      -64.980     238.225     214.795
  C      -64.541     235.882     214.721
  O      -63.281     236.224     215.296
  C      -65.644     235.568     215.733
  N      -62.881     232.505     218.670
  C      -62.734     233.859     218.415
  N      -61.685     234.469     219.021
  N      -63.536     234.541     217.648
  C      -64.558     233.809     217.141
  C      -64.820     232.464     217.319
  C      -63.893     231.704     218.140
  O      -63.941     230.497     218.356
  N      -65.945     232.077     216.637
  C      -66.368     233.177     216.042
  N      -65.546     234.250     216.310
  O      -67.324     235.125     209.866
  O      -66.420     232.872     210.673
  H      -63.456     236.890     215.997
  H      -66.851     234.785     209.079
  H      -62.217     232.010     219.247
  H      -67.227     233.246     215.392
  H      -65.643     236.302     216.554
  H      -64.387     235.051     214.021
  H      -61.068     234.012     219.670
  H      -64.732     237.216     212.990
  H      -61.590     235.470     218.886
  H      -67.261     237.587     214.238
  H      -68.266     235.991     212.716
  H      -67.025     236.902     211.843
  P      -63.908     239.300     214.259
  C      -65.087     240.712     212.409
  O      -64.769     240.572     213.781
  O      -63.389     238.658     212.886
  O      -62.794     239.587     215.215
  H      -62.485     238.964     212.693
  H      -64.856     239.804     211.839
  H      -64.502     241.546     212.001
  H      -66.152     240.931     212.309
  H      -70.695     234.138     210.999
  H      -69.605     234.109     209.634
  H      -69.610     235.478     210.719

 3  4  5  6  7  8  9  10  11  12  23  26  30  31  33  0
 6-311+G(2d,p)
 ****
 35  36  37  38 0
 6-311+G(2d,p)
 ****
 1  2  13  14  15  16  17  18  19  20  21  22  24  25  27  28  29 0
 3-21G
 ****
 32  34  39  40  41  42  43  44  45  46  47  48  49 0
 3-21G
 ****


