%nproc=1
%NoSave
%Mem=1900MB
#P OB98/GEN NMR

erre ene a

0 1
  C     -374.154     -97.521     -79.822
  O     -375.042     -96.875     -78.931
  H     -373.254     -96.910     -79.929
  H     -374.628     -97.617     -80.802
  H     -373.871     -98.507     -79.445
  P     -376.235     -97.752     -78.319
  C     -376.684     -96.539     -76.068
  O     -377.110     -96.762     -77.403
  C     -377.297     -95.249     -75.521
  O     -376.506     -94.119     -76.000
  C     -378.755     -95.014     -75.951
  O     -379.463     -94.400     -74.867
  C     -378.614     -93.993     -77.064
  O     -379.806     -93.239     -77.260
  C     -377.438     -93.171     -76.550
  N     -378.300     -89.250     -79.562
  C     -378.996     -89.705     -78.461
  N     -380.134     -89.054     -78.140
  N     -378.609     -90.720     -77.733
  C     -377.443     -91.270     -78.151
  C     -376.664     -90.918     -79.225
  C     -377.108     -89.805     -80.036
  O     -376.550     -89.367     -81.035
  N     -375.589     -91.763     -79.349
  C     -375.734     -92.635     -78.366
  N     -376.845     -92.376     -77.611
  O     -375.477     -98.678     -77.254
  O     -377.009     -98.560     -79.307
  H     -380.515     -93.853     -77.542
  H     -375.257     -99.537     -77.661
  H     -378.650     -88.475     -80.099
  H     -375.079     -93.474     -78.171
  H     -377.729     -92.473     -75.754
  H     -378.362     -94.495     -78.006
  H     -380.480     -88.246     -78.636
  H     -379.277     -95.922     -76.267
  H     -380.633     -89.350     -77.311
  H     -377.212     -95.258     -74.426
  H     -375.593     -96.451     -76.048
  H     -376.978     -97.394     -75.449
  P     -380.892     -95.001     -74.462
  C     -380.286     -95.918     -72.102
  O     -381.026     -94.972     -72.862
  O     -380.732     -96.563     -74.788
  O     -382.037     -94.403     -75.208
  H     -381.581     -96.926     -75.101
  H     -380.481     -95.770     -71.060
  H     -379.241     -95.788     -72.291
  H     -380.579     -96.908     -72.383

 6  7  8  9  10  11  12  13  14  15  26  29  33  34 0
 6-311+G(2d,p)
 ****
 36  38  39  40  41 0
 6-311+G(2d,p)
 ****
 1  2  3  4  5  16  17  18  19  20  21  22  23  24  25 0
 3-21G
 ****
 27  28  30  31  32  35  37  42  43  44  45  46  47 0
 3-21G
 ****
 48  49 0
 3-21G
 ****


