%nproc=1
%NoSave
%Mem=1900MB
#P OB98/GEN NMR

erre ene a

0 1
  C     -515.540    -211.197    -461.967
  O     -516.872    -210.754    -461.848
  P     -517.263    -209.248    -462.207
  C     -519.749    -209.734    -461.754
  O     -518.625    -208.936    -461.407
  C     -521.023    -209.155    -461.120
  O     -521.178    -207.753    -461.456
  C     -522.306    -209.815    -461.599
  O     -522.512    -211.169    -461.255
  C     -523.342    -208.807    -461.118
  O     -523.649    -208.993    -459.736
  C     -522.592    -207.461    -461.337
  N     -523.094    -206.749    -462.512
  C     -523.784    -205.562    -462.252
  O     -523.969    -205.112    -461.128
  N     -524.275    -204.909    -463.344
  C     -524.200    -205.340    -464.646
  O     -524.704    -204.721    -465.575
  C     -523.477    -206.603    -464.855
  C     -522.966    -207.244    -463.799
  O     -517.317    -208.928    -463.669
  O     -516.192    -208.379    -461.394
  H     -524.323    -208.325    -459.495
  H     -516.210    -208.516    -460.432
  H     -524.783    -204.063    -463.181
  H     -523.386    -206.965    -465.872
  H     -522.432    -208.176    -463.924
  H     -522.707    -206.813    -460.460
  H     -524.283    -208.902    -461.675
  H     -522.318    -209.786    -462.697
  H     -520.911    -209.221    -460.031
  H     -519.590    -210.751    -461.379
  H     -519.835    -209.789    -462.845
  P     -522.574    -212.348    -462.336
  C     -522.763    -213.949    -460.307
  O     -523.187    -213.648    -461.620
  O     -521.372    -212.532    -463.204
  O     -523.810    -211.871    -463.259
  H     -523.661    -212.183    -464.168
  H     -523.237    -214.885    -459.999
  H     -523.068    -213.152    -459.616
  H     -521.675    -214.085    -460.268
  H     -515.480    -212.227    -461.683
  H     -514.912    -210.614    -461.327
  H     -515.217    -211.087    -462.981

 3  4  5  6  7  8  9  10  11  12  13  23  28  29  30  31  32 0
 6-311+G(2d,p)
 ****
 33  34 0
 6-311+G(2d,p)
 ****
 1  2  14  15  16  17  18  19  20  21  22  24  25  26  27 0
 3-21G
 ****
 35  36  37  38  39  40  41  42  43  44  45 0
 3-21G
 ****


