%nproc=1
%NoSave
%Mem=1900MB
#P OB98/GEN NMR

erre ene a

0 1
  C     -226.658    -461.841    -401.734
  O     -226.378    -462.217    -400.377
  P     -226.860    -461.191    -399.236
  C     -225.005    -459.499    -399.880
  O     -226.386    -459.722    -399.690
  C     -224.740    -458.479    -401.004
  O     -225.332    -457.187    -400.657
  C     -223.255    -458.251    -401.305
  O     -223.140    -458.011    -402.725
  C     -222.967    -456.961    -400.536
  O     -221.757    -456.335    -400.909
  C     -224.257    -456.207    -400.793
  N     -224.196    -451.111    -400.441
  C     -223.907    -451.948    -401.468
  N     -223.943    -453.300    -401.481
  C     -224.330    -453.778    -400.270
  C     -224.646    -453.041    -399.144
  C     -224.565    -451.645    -399.243
  N     -224.822    -450.780    -398.202
  N     -224.962    -453.897    -398.078
  C     -224.765    -455.104    -398.577
  N     -224.462    -455.094    -399.903
  O     -225.925    -461.536    -397.996
  O     -228.311    -461.314    -398.911
  H     -221.522    -455.647    -400.257
  H     -226.388    -462.098    -397.362
  H     -223.616    -451.472    -402.395
  H     -224.842    -456.027    -398.008
  H     -224.300    -455.815    -401.827
  H     -222.876    -457.199    -399.460
  H     -222.607    -459.092    -401.019
  H     -225.250    -458.835    -401.911
  H     -224.503    -460.442    -400.132
  H     -224.721    -449.791    -398.379
  H     -225.077    -451.132    -397.303
  H     -224.559    -459.160    -398.935
  P     -222.741    -459.244    -403.673
  C     -220.223    -458.784    -403.795
  O     -221.236    -459.622    -403.258
  O     -222.497    -458.472    -405.057
  O     -223.733    -460.356    -403.756
  H     -221.909    -457.699    -404.939
  H     -219.259    -459.104    -403.356
  H     -220.394    -457.743    -403.520
  H     -220.174    -458.904    -404.882
  H     -226.292    -462.597    -402.396
  H     -226.176    -460.911    -401.953
  H     -227.715    -461.734    -401.864

 3  4  5  6  7  8  9  10  11  12  22  25  29  30  31  32 0
 6-311+G(2d,p)
 ****
 33  36  37 0
 6-311+G(2d,p)
 ****
 1  2  13  14  15  16  17  18  19  20  21  23  24  26 0
 3-21G
 ****
 27  28  34  35  38  39  40  41  42  43  44  45  46  47  48 0
 3-21G
 ****


