%nproc=1
%NoSave
%Mem=1900MB
#P OB98/GEN NMR

erre ene a

0 1
  C       56.037      -9.679      40.972
  O       54.858      -9.247      40.333
  H       56.895      -9.302      40.408
  H       56.089     -10.771      40.982
  H       56.089      -9.291      41.991
  P       53.434      -9.695      40.925
  C       51.955      -8.629      42.732
  O       53.288      -8.905      42.321
  C       51.868      -8.481      44.251
  O       52.396      -9.677      44.886
  C       52.654      -7.281      44.801
  O       51.843      -6.558      45.729
  C       53.819      -7.924      45.536
  O       54.361      -7.093      46.558
  C       53.176      -9.231      46.010
  N       54.169     -10.213      46.422
  C       54.473     -10.247      47.786
  O       53.908      -9.480      48.567
  N       55.445     -11.107      48.226
  C       56.093     -11.835      47.372
  N       57.064     -12.645      47.871
  C       55.824     -11.811      45.920
  C       54.856     -10.988      45.518
  O       53.231     -11.170      41.011
  O       52.355      -8.967      39.994
  H       54.932      -6.414      46.137
  H       51.500      -9.452      40.057
  H       56.396     -12.434      45.249
  H       54.589     -10.901      44.471
  H       52.492      -9.050      46.849
  H       54.622      -8.143      44.819
  H       52.998      -6.601      44.023
  H       50.809      -8.426      44.534
  H       57.220     -12.625      48.872
  H       51.307      -9.444      42.388
  H       57.649     -13.238      47.302
  H       51.635      -7.693      42.263
  P       50.689      -5.639      45.096
  C       48.379      -6.145      44.028
  O       49.356      -6.525      44.985
  O       51.158      -5.452      43.578
  O       50.528      -4.326      45.787
  H       51.442      -4.531      43.430
  H       47.554      -6.825      44.071
  H       48.810      -6.169      43.049
  H       48.036      -5.154      44.242

 6  7  8  9  10  11  12  13  14  15  16  26  30  31  32  33  35 0
 6-311+G(2d,p)
 ****
 37  38 0
 6-311+G(2d,p)
 ****
 1  2  3  4  5  17  18  19  20  21  22  23  24  25 0
 3-21G
 ****
 27  28  29  34  36  39  40  41  42  43  44  45  46 0
 3-21G
 ****


