%nproc=1
%NoSave
%Mem=1900MB
#P OB98/GEN NMR

erre ene a

0 1
  C     1583.337    -212.337    -983.840
  O     1584.469    -211.702    -984.379
  H     1583.013    -211.793    -982.936
  H     1583.582    -213.364    -983.549
  H     1582.511    -212.338    -984.552
  P     1584.971    -212.207    -985.819
  C     1585.674    -214.572    -985.001
  O     1586.089    -213.327    -985.535
  C     1586.876    -215.488    -984.810
  O     1587.488    -215.803    -986.084
  C     1587.985    -214.905    -983.939
  O     1587.719    -215.075    -982.558
  C     1589.170    -215.761    -984.366
  O     1589.080    -217.055    -983.755
  C     1588.931    -215.882    -985.889
  N     1593.161    -214.582    -988.360
  C     1592.858    -215.729    -987.648
  N     1593.844    -216.649    -987.582
  N     1591.719    -215.948    -987.052
  C     1590.848    -214.930    -987.213
  C     1591.015    -213.741    -987.883
  C     1592.284    -213.514    -988.537
  O     1592.589    -212.533    -989.197
  N     1589.893    -212.945    -987.824
  C     1589.060    -213.649    -987.081
  N     1589.588    -214.852    -986.663
  O     1585.816    -210.972    -986.386
  O     1583.891    -212.608    -986.763
  H     1588.270    -217.486    -984.106
  H     1585.684    -210.911    -987.345
  H     1594.067    -214.455    -988.783
  H     1588.052    -213.332    -986.824
  H     1589.258    -216.850    -986.280
  H     1590.126    -215.330    -984.089
  H     1594.765    -216.533    -987.963
  H     1588.184    -213.854    -984.190
  H     1593.643    -217.523    -987.092
  H     1586.510    -216.448    -984.384
  H     1584.967    -215.045    -985.701
  H     1585.162    -214.405    -984.043
  P     1587.870    -213.782    -981.615
  C     1590.455    -214.110    -981.443
  O     1589.210    -214.039    -980.753
  O     1586.700    -213.976    -980.531
  O     1587.779    -212.466    -982.312
  H     1586.467    -213.108    -980.138
  H     1591.243    -214.283    -980.740
  H     1590.631    -213.188    -981.956
  H     1590.425    -214.912    -982.150

 6  7  8  9  10  11  12  13  14  15  26  29  33  34 0
 6-311+G(2d,p)
 ****
 36  38  39  40  41 0
 6-311+G(2d,p)
 ****
 1  2  3  4  5  16  17  18  19  20  21  22  23  24  25 0
 3-21G
 ****
 27  28  30  31  32  35  37  42  43  44  45  46  47 0
 3-21G
 ****
 48  49 0
 3-21G
 ****


