%nproc=1
%NoSave
%Mem=1900MB
#P OB98/GEN NMR

erre ene a

0 1
  C     -891.010     400.555     -46.554
  O     -891.710     400.043     -45.428
  P     -892.650     398.763     -45.548
  C     -894.550     400.260     -46.455
  O     -894.160     399.315     -45.476
  C     -896.040     400.164     -46.771
  O     -896.330     398.976     -47.538
  C     -896.930     400.065     -45.531
  O     -897.070     401.338     -44.911
  C     -898.200     399.488     -46.125
  O     -899.000     400.536     -46.705
  C     -897.680     398.550     -47.214
  N     -897.690     397.137     -46.817
  C     -898.850     396.433     -47.138
  O     -899.790     397.005     -47.721
  N     -898.940     395.122     -46.769
  C     -897.980     394.557     -46.087
  N     -898.140     393.233     -45.771
  C     -896.750     395.271     -45.710
  C     -896.700     396.555     -46.088
  O     -892.350     397.648     -44.597
  O     -892.510     398.361     -47.088
  H     -899.680     400.054     -47.284
  H     -891.630     397.935     -47.268
  H     -895.980     394.788     -45.158
  H     -895.820     397.169     -45.825
  H     -898.260     398.656     -48.124
  H     -898.830     398.987     -45.359
  H     -896.480     399.340     -44.827
  H     -896.330     401.052     -47.368
  H     -899.020     392.818     -46.036
  H     -893.970     400.050     -47.379
  H     -897.470     392.738     -45.228
  H     -894.290     401.264     -46.134
  P     -897.260     401.425     -43.316
  C     -899.010     399.660     -42.653
  O     -898.800     401.037     -42.995
  O     -896.800     402.698     -42.698
  O     -896.430     400.177     -42.757
  H     -895.900     400.458     -41.995
  H     -900.000     399.612     -42.162
  H     -898.240     399.290     -41.992
  H     -899.070     399.089     -43.555
  H     -890.440     401.412     -46.260
  H     -891.711     400.836     -47.312
  H     -890.352     399.803     -46.937

 3  4  5  6  7  8  9  10  11  12  13  23  27  28  29  30  32 0
 6-311+G(2d,p)
 ****
 34  35 0
 6-311+G(2d,p)
 ****
 1  2  14  15  16  17  18  19  20  21  22  24  25  26 0
 3-21G
 ****
 31  33  36  37  38  39  40  41  42  43  44  45  46 0
 3-21G
 ****


