%nproc=1
%NoSave
%Mem=1900MB
#P OB98/GEN NMR

erre ene a

0 1
  C       35.130    -439.586     150.177
  O       35.163    -438.465     149.318
  H       34.580    -439.318     151.083
  H       36.148    -439.872     150.455
  H       34.625    -440.429     149.694
  P       35.748    -438.705     147.843
  C       38.093    -439.503     147.069
  O       37.347    -438.711     147.982
  C       39.376    -438.778     146.669
  O       40.189    -438.516     147.835
  C       40.258    -439.558     145.701
  O       39.825    -439.408     144.354
  C       41.596    -438.868     145.926
  O       41.609    -437.599     145.240
  C       41.585    -438.652     147.444
  N       45.528    -440.035     150.316
  C       45.261    -438.829     149.697
  N       46.180    -437.853     149.856
  N       44.192    -438.598     148.980
  C       43.365    -439.669     148.896
  C       43.517    -440.913     149.467
  C       44.700    -441.150     150.264
  O       44.973    -442.193     150.854
  N       42.465    -441.734     149.167
  C       41.684    -440.998     148.402
  N       42.188    -439.739     148.199
  O       35.448    -437.317     147.095
  O       35.160    -439.858     147.102
  H       41.759    -437.791     144.295
  H       35.228    -437.505     146.163
  H       46.371    -440.164     150.848
  H       40.748    -441.328     147.972
  H       42.101    -437.731     147.738
  H       42.438    -439.447     145.543
  H       47.048    -437.980     150.355
  H       40.340    -440.612     145.987
  H       45.991    -436.951     149.441
  H       39.096    -437.807     146.241
  H       37.488    -439.687     146.176
  H       38.334    -440.459     147.543
  P       40.439    -440.413     143.261
  C       42.537    -440.366     141.727
  O       41.705    -439.652     142.638
  O       39.359    -440.365     142.079
  O       40.682    -441.803     143.746
  H       39.419    -441.176     141.539
  H       43.334    -439.731     141.399
  H       41.957    -440.676     140.883
  H       42.944    -441.227     142.215

 6  7  8  9  10  11  12  13  14  15  26  29  33  34 0
 6-311+G(2d,p)
 ****
 36  38  39  40  41 0
 6-311+G(2d,p)
 ****
 1  2  3  4  5  16  17  18  19  20  21  22  23  24  25 0
 3-21G
 ****
 27  28  30  31  32  35  37  42  43  44  45  46  47 0
 3-21G
 ****
 48  49 0
 3-21G
 ****


