%nproc=1
%NoSave
%Mem=1900MB
#P OB98/GEN NMR

erre ene a

0 1
  C       51.953     879.900    -209.132
  O       51.516     881.098    -209.768
  P       52.659     882.101    -210.318
  C       51.910     884.220    -209.033
  O       52.861     883.178    -209.142
  C       52.310     885.220    -207.912
  O       52.379     884.510    -206.647
  C       53.701     885.823    -208.091
  O       53.694     886.900    -209.001
  C       54.006     886.291    -206.675
  O       53.372     887.553    -206.445
  C       53.341     885.196    -205.816
  N       54.657     882.413    -201.790
  C       53.619     883.315    -201.942
  N       52.800     883.487    -200.879
  N       53.420     883.998    -203.043
  C       54.271     883.700    -204.036
  C       55.350     882.829    -204.003
  C       55.593     882.110    -202.762
  O       56.548     881.344    -202.558
  N       56.002     882.793    -205.204
  C       55.301     883.595    -205.974
  N       54.264     884.196    -205.308
  O       51.874     882.950    -211.444
  O       53.869     881.461    -210.843
  H       53.941     888.243    -206.850
  H       52.521     883.298    -212.103
  H       54.759     881.912    -200.942
  H       55.515     883.780    -207.034
  H       52.799     885.634    -204.965
  H       55.077     886.432    -206.494
  H       52.844     882.888    -200.040
  H       54.450     885.053    -208.386
  H       52.004     884.113    -201.006
  H       51.567     885.987    -207.837
  H       50.930     883.819    -208.775
  H       51.842     884.754    -209.981
  P       55.121     887.352    -209.596
  C       54.809     889.797    -208.781
  O       55.589     888.624    -208.705
  O       54.748     888.007    -211.010
  O       56.090     886.246    -209.735
  H       55.509     887.957    -211.647
  H       53.733     889.584    -208.870
  H       55.130     890.408    -209.610
  H       54.939     890.382    -207.839
  H       51.102     879.332    -208.818
  H       52.551     880.146    -208.280
  H       52.534     879.322    -209.820

 3  4  5  6  7  8  9  10  11  12  23  26  30  31  33  0
 6-311+G(2d,p)
 ****
 35  36  37  38 0
 6-311+G(2d,p)
 ****
 1  2  13  14  15  16  17  18  19  20  21  22  24  25  27  28  29 0
 3-21G
 ****
 32  34  39  40  41  42  43  44  45  46  47  48  49 0
 3-21G
 ****


