%nproc=1
%NoSave
%Mem=1900MB
#P OB98/GEN NMR

erre ene a

0 1
  C      183.316     -61.176    -289.153
  O      182.379     -61.439    -288.132
  P      182.593     -62.639    -287.093
  C      181.499     -64.323    -288.710
  O      182.663     -63.992    -287.965
  C      181.192     -65.819    -288.583
  O      182.357     -66.575    -289.037
  C      180.889     -66.248    -287.134
  O      179.667     -66.965    -286.969
  C      182.148     -67.003    -286.735
  O      181.969     -67.889    -285.646
  C      182.572     -67.622    -288.070
  N      183.957     -68.091    -288.056
  C      184.171     -69.416    -287.692
  O      183.285     -70.213    -287.399
  N      185.478     -69.811    -287.613
  C      186.570     -69.003    -287.742
  O      187.708     -69.399    -287.561
  C      186.279     -67.602    -288.086
  C      185.008     -67.221    -288.246
  O      181.623     -62.686    -285.964
  O      184.118     -62.457    -286.639
  H      182.819     -68.347    -285.491
  H      184.770     -62.510    -287.361
  H      185.651     -70.771    -287.351
  H      187.122     -66.932    -288.184
  H      184.765     -66.192    -288.500
  H      181.928     -68.461    -288.345
  H      182.896     -66.262    -286.422
  H      180.768     -65.372    -286.478
  H      180.349     -66.044    -289.245
  H      181.677     -64.082    -289.762
  H      180.651     -63.714    -288.371
  P      178.654     -66.796    -285.742
  C      179.336     -68.943    -284.435
  O      179.289     -67.527    -284.468
  O      177.238     -67.149    -286.028
  O      178.782     -65.243    -285.363
  H      177.944     -64.930    -284.981
  H      179.300     -69.268    -283.391
  H      180.274     -69.284    -284.881
  H      178.492     -69.381    -284.973
  H      182.987     -60.339    -289.732
  H      183.405     -62.035    -289.785
  H      184.267     -60.955    -288.716

 3  4  5  6  7  8  9  10  11  12  13  23  28  29  30  31  32 0
 6-311+G(2d,p)
 ****
 33  34 0
 6-311+G(2d,p)
 ****
 1  2  14  15  16  17  18  19  20  21  22  24  25  26  27 0
 3-21G
 ****
 35  36  37  38  39  40  41  42  43  44  45 0
 3-21G
 ****


